
OS:Version,
  {b8a5743f-a066-4e4f-b1b9-9a549bb1b8a4}, !- Handle
  3.1.0;                                  !- Version Identifier

OS:WeatherFile,
  {9a69f63b-c9f3-47d7-a53f-e48a2b843cf7}, !- Handle
  Climate Zone 3,                         !- City
  CA,                                     !- State Province Region
  USA,                                    !- Country
  CTZRV2,                                 !- Data Source
  724930,                                 !- WMO Number
  28.51768858,                            !- Latitude {deg}
  -81.3790388,                            !- Longitude {deg}
  -8,                                     !- Time Zone {hr}
  2,                                      !- Elevation {m}
  /Users/llin/Documents/repo/edv-experiment-1/data/weather/temporary/temporary.epw, !- Url
  ;                                       !- Checksum

OS:Site,
  {cfaa3aac-add1-4a97-b651-6686de23cc29}, !- Handle
  Climate Zone 3_CA_USA,                  !- Name
  28.51768858,                            !- Latitude {deg}
  -81.3790388,                            !- Longitude {deg}
  -8,                                     !- Time Zone {hr}
  2,                                      !- Elevation {m}
  City;                                   !- Terrain

OS:Site:WaterMainsTemperature,
  {15b59ef1-cca4-409b-97e9-02cf75f7d8c4}, !- Handle
  Correlation,                            !- Calculation Method
  ,                                       !- Temperature Schedule Name
  14.1416666666667,                       !- Annual Average Outdoor Air Temperature {C}
  7.8;                                    !- Maximum Difference In Monthly Average Outdoor Air Temperatures {deltaC}

OS:ClimateZones,
  {d6aa0a31-b962-435b-b0c5-2a1cc15c30a5}, !- Handle
  ASHRAE,                                 !- Climate Zone Institution Name 1
  ANSI/ASHRAE Standard 169,               !- Climate Zone Document Name 1
  2006,                                   !- Climate Zone Document Year 1
  3C;                                     !- Climate Zone Value 1

OS:SizingPeriod:DesignDay,
  {53aa7a73-8728-4cb4-8a93-a945e7293185}, !- Handle
  Climate Zone 3 Ann Clg .4% Condns WB=>MDB, !- Name
  25.5,                                   !- Maximum Dry-Bulb Temperature {C}
  7.4,                                    !- Daily Dry-Bulb Temperature Range {deltaC}
  19.8,                                   !- Humidity Indicating Conditions at Maximum Dry-Bulb
  101301,                                 !- Barometric Pressure {Pa}
  4.9,                                    !- Wind Speed {m/s}
  290,                                    !- Wind Direction {deg}
  0,                                      !- Sky Clearness
  0,                                      !- Rain Indicator
  0,                                      !- Snow Indicator
  21,                                     !- Day of Month
  8,                                      !- Month
  SummerDesignDay,                        !- Day Type
  0,                                      !- Daylight Saving Time Indicator
  Wetbulb,                                !- Humidity Indicating Type
  ,                                       !- Humidity Indicating Day Schedule Name
  DefaultMultipliers,                     !- Dry-Bulb Temperature Range Modifier Type
  ,                                       !- Dry-Bulb Temperature Range Modifier Schedule Name
  ASHRAETau,                              !- Solar Model Indicator
  ,                                       !- Beam Solar Day Schedule Name
  ,                                       !- Diffuse Solar Day Schedule Name
  0.367,                                  !- ASHRAE Taub {dimensionless}
  2.428;                                  !- ASHRAE Taud {dimensionless}

OS:SizingPeriod:DesignDay,
  {fc1e45a9-9eee-4740-bd66-11ba18c311a9}, !- Handle
  Climate Zone 3 Ann Htg 99.6% Condns DB, !- Name
  2.9,                                    !- Maximum Dry-Bulb Temperature {C}
  0,                                      !- Daily Dry-Bulb Temperature Range {deltaC}
  2.9,                                    !- Humidity Indicating Conditions at Maximum Dry-Bulb
  101301,                                 !- Barometric Pressure {Pa}
  2.2,                                    !- Wind Speed {m/s}
  50,                                     !- Wind Direction {deg}
  0,                                      !- Sky Clearness
  0,                                      !- Rain Indicator
  0,                                      !- Snow Indicator
  21,                                     !- Day of Month
  1,                                      !- Month
  WinterDesignDay,                        !- Day Type
  0,                                      !- Daylight Saving Time Indicator
  Wetbulb,                                !- Humidity Indicating Type
  ,                                       !- Humidity Indicating Day Schedule Name
  DefaultMultipliers,                     !- Dry-Bulb Temperature Range Modifier Type
  ,                                       !- Dry-Bulb Temperature Range Modifier Schedule Name
  ASHRAEClearSky;                         !- Solar Model Indicator

OS:SizingPeriod:DesignDay,
  {f99306fb-3270-4ded-890a-5d019ab7f1ef}, !- Handle
  Climate Zone 3 Ann Clg .4% Condns DB=>MWB, !- Name
  27.7,                                   !- Maximum Dry-Bulb Temperature {C}
  7.4,                                    !- Daily Dry-Bulb Temperature Range {deltaC}
  18.3,                                   !- Humidity Indicating Conditions at Maximum Dry-Bulb
  101301,                                 !- Barometric Pressure {Pa}
  4.9,                                    !- Wind Speed {m/s}
  290,                                    !- Wind Direction {deg}
  0,                                      !- Sky Clearness
  0,                                      !- Rain Indicator
  0,                                      !- Snow Indicator
  21,                                     !- Day of Month
  8,                                      !- Month
  SummerDesignDay,                        !- Day Type
  0,                                      !- Daylight Saving Time Indicator
  Wetbulb,                                !- Humidity Indicating Type
  ,                                       !- Humidity Indicating Day Schedule Name
  DefaultMultipliers,                     !- Dry-Bulb Temperature Range Modifier Type
  ,                                       !- Dry-Bulb Temperature Range Modifier Schedule Name
  ASHRAETau,                              !- Solar Model Indicator
  ,                                       !- Beam Solar Day Schedule Name
  ,                                       !- Diffuse Solar Day Schedule Name
  0.367,                                  !- ASHRAE Taub {dimensionless}
  2.428;                                  !- ASHRAE Taud {dimensionless}

OS:YearDescription,
  {306c9b71-8e77-4c9c-bb76-4ca75efe508c}, !- Handle
  2019,                                   !- Calendar Year
  ,                                       !- Day of Week for Start Day
  ;                                       !- Is Leap Year

OS:SpaceType,
  {335b164b-bda9-4708-9466-08d694a61235}, !- Handle
  SmallOffice WholeBuilding - Sm Office - 90.1-2007, !- Name
  ,                                       !- Default Construction Set Name
  {8c52a0c7-2637-44dd-a4f0-4e04b3ca0313}, !- Default Schedule Set Name
  ,                                       !- Group Rendering Name
  {d755592d-d7ff-42e0-bba1-e45b2fbba504}, !- Design Specification Outdoor Air Object Name
  ,                                       !- Standards Template
  Office,                                 !- Standards Building Type
  WholeBuilding - Sm Office;              !- Standards Space Type

OS:Building,
  {b048ae04-0bdf-4a21-80ef-5b26e93e7aeb}, !- Handle
  90.1-2007|SmallOffice|SmallOffice,      !- Name
  ,                                       !- Building Sector Type
  ,                                       !- North Axis {deg}
  ,                                       !- Nominal Floor to Floor Height {m}
  ,                                       !- Space Type Name
  {24327132-8ccc-4374-91df-4ea66e7186a8}, !- Default Construction Set Name
  {15525304-c271-42c3-8d9f-a50bd0cb48ba}, !- Default Schedule Set Name
  ,                                       !- Standards Number of Stories
  ,                                       !- Standards Number of Above Ground Stories
  ,                                       !- Standards Template
  Office;                                 !- Standards Building Type

OS:BuildingStory,
  {fe1cf82d-0207-449e-8cc4-3346f59e3b5d}, !- Handle
  Story Ground,                           !- Name
  0,                                      !- Nominal Z Coordinate {m}
  3.048,                                  !- Nominal Floor to Floor Height {m}
  ,                                       !- Default Construction Set Name
  ,                                       !- Default Schedule Set Name
  ;                                       !- Group Rendering Name

OS:Space,
  {3fc38c8b-f81e-4ff5-b80e-16fb44bbc28f}, !- Handle
  SmallOffice WholeBuilding - Sm Office A end_a - Story Ground, !- Name
  {335b164b-bda9-4708-9466-08d694a61235}, !- Space Type Name
  ,                                       !- Default Construction Set Name
  ,                                       !- Default Schedule Set Name
  -0,                                     !- Direction of Relative North {deg}
  -80.8539812259112,                      !- X Origin {m}
  -53.9026541506075,                      !- Y Origin {m}
  0,                                      !- Z Origin {m}
  {fe1cf82d-0207-449e-8cc4-3346f59e3b5d}, !- Building Story Name
  {eac4f722-4893-4357-9e20-7a7826e34ac3}; !- Thermal Zone Name

OS:Surface,
  {c91f3246-ddde-46a0-b461-6604bad6c101}, !- Handle
  Surface 1,                              !- Name
  Floor,                                  !- Surface Type
  ,                                       !- Construction Name
  {3fc38c8b-f81e-4ff5-b80e-16fb44bbc28f}, !- Space Name
  Ground,                                 !- Outside Boundary Condition
  ,                                       !- Outside Boundary Condition Object
  NoSun,                                  !- Sun Exposure
  NoWind,                                 !- Wind Exposure
  ,                                       !- View Factor to Ground
  ,                                       !- Number of Vertices
  0, -3.5527136788005e-14, 0,             !- X,Y,Z Vertex 1 {m}
  0, 4.57199999999997, 0,                 !- X,Y,Z Vertex 2 {m}
  4.572, 4.57199999999997, 0,             !- X,Y,Z Vertex 3 {m}
  4.572, -3.5527136788005e-14, 0;         !- X,Y,Z Vertex 4 {m}

OS:Surface,
  {caaf421f-381c-4234-899c-9078494daf7d}, !- Handle
  Surface 2,                              !- Name
  Wall,                                   !- Surface Type
  ,                                       !- Construction Name
  {3fc38c8b-f81e-4ff5-b80e-16fb44bbc28f}, !- Space Name
  Outdoors,                               !- Outside Boundary Condition
  ,                                       !- Outside Boundary Condition Object
  SunExposed,                             !- Sun Exposure
  WindExposed,                            !- Wind Exposure
  ,                                       !- View Factor to Ground
  ,                                       !- Number of Vertices
  0, 4.57199999999997, 3.048,             !- X,Y,Z Vertex 1 {m}
  0, 4.57199999999997, 0,                 !- X,Y,Z Vertex 2 {m}
  0, -3.5527136788005e-14, 0,             !- X,Y,Z Vertex 3 {m}
  0, -3.5527136788005e-14, 3.048;         !- X,Y,Z Vertex 4 {m}

OS:Surface,
  {8a3cec82-941c-4802-b345-7623eb5bb8e0}, !- Handle
  Surface 3,                              !- Name
  Wall,                                   !- Surface Type
  ,                                       !- Construction Name
  {3fc38c8b-f81e-4ff5-b80e-16fb44bbc28f}, !- Space Name
  Surface,                                !- Outside Boundary Condition
  {8bbd4e56-dfbc-4a50-8a2a-9b34345f85ae}, !- Outside Boundary Condition Object
  NoSun,                                  !- Sun Exposure
  NoWind,                                 !- Wind Exposure
  ,                                       !- View Factor to Ground
  ,                                       !- Number of Vertices
  4.572, 4.57199999999997, 3.048,         !- X,Y,Z Vertex 1 {m}
  4.572, 4.57199999999997, 0,             !- X,Y,Z Vertex 2 {m}
  0, 4.57199999999997, 0,                 !- X,Y,Z Vertex 3 {m}
  0, 4.57199999999997, 3.048;             !- X,Y,Z Vertex 4 {m}

OS:Surface,
  {89f94b2b-0e0d-4eca-9ce2-1d885364db82}, !- Handle
  Surface 4,                              !- Name
  Wall,                                   !- Surface Type
  ,                                       !- Construction Name
  {3fc38c8b-f81e-4ff5-b80e-16fb44bbc28f}, !- Space Name
  Surface,                                !- Outside Boundary Condition
  {cb856ea6-0ca9-44d3-a4a8-4b34383343ea}, !- Outside Boundary Condition Object
  NoSun,                                  !- Sun Exposure
  NoWind,                                 !- Wind Exposure
  ,                                       !- View Factor to Ground
  ,                                       !- Number of Vertices
  4.572, -3.5527136788005e-14, 3.048,     !- X,Y,Z Vertex 1 {m}
  4.572, -3.5527136788005e-14, 0,         !- X,Y,Z Vertex 2 {m}
  4.572, 4.57199999999997, 0,             !- X,Y,Z Vertex 3 {m}
  4.572, 4.57199999999997, 3.048;         !- X,Y,Z Vertex 4 {m}

OS:Surface,
  {541cb248-882b-4826-97e0-8a33f8c5729a}, !- Handle
  Surface 5,                              !- Name
  Wall,                                   !- Surface Type
  ,                                       !- Construction Name
  {3fc38c8b-f81e-4ff5-b80e-16fb44bbc28f}, !- Space Name
  Outdoors,                               !- Outside Boundary Condition
  ,                                       !- Outside Boundary Condition Object
  SunExposed,                             !- Sun Exposure
  WindExposed,                            !- Wind Exposure
  ,                                       !- View Factor to Ground
  ,                                       !- Number of Vertices
  0, -3.5527136788005e-14, 3.048,         !- X,Y,Z Vertex 1 {m}
  0, -3.5527136788005e-14, 0,             !- X,Y,Z Vertex 2 {m}
  4.572, -3.5527136788005e-14, 0,         !- X,Y,Z Vertex 3 {m}
  4.572, -3.5527136788005e-14, 3.048;     !- X,Y,Z Vertex 4 {m}

OS:Surface,
  {aff0c385-e9e2-4d44-8cda-db3b49568343}, !- Handle
  Surface 6,                              !- Name
  RoofCeiling,                            !- Surface Type
  ,                                       !- Construction Name
  {3fc38c8b-f81e-4ff5-b80e-16fb44bbc28f}, !- Space Name
  Outdoors,                               !- Outside Boundary Condition
  ,                                       !- Outside Boundary Condition Object
  SunExposed,                             !- Sun Exposure
  WindExposed,                            !- Wind Exposure
  ,                                       !- View Factor to Ground
  ,                                       !- Number of Vertices
  4.572, -3.5527136788005e-14, 3.048,     !- X,Y,Z Vertex 1 {m}
  4.572, 4.57199999999997, 3.048,         !- X,Y,Z Vertex 2 {m}
  0, 4.57199999999997, 3.048,             !- X,Y,Z Vertex 3 {m}
  0, -3.5527136788005e-14, 3.048;         !- X,Y,Z Vertex 4 {m}

OS:ThermalZone,
  {eac4f722-4893-4357-9e20-7a7826e34ac3}, !- Handle
  Zone SmallOffice WholeBuilding - Sm Office A end_a - Story Ground, !- Name
  1,                                      !- Multiplier
  ,                                       !- Ceiling Height {m}
  ,                                       !- Volume {m3}
  ,                                       !- Floor Area {m2}
  ,                                       !- Zone Inside Convection Algorithm
  ,                                       !- Zone Outside Convection Algorithm
  ,                                       !- Zone Conditioning Equipment List Name
  {1341aed0-5895-455e-8b93-3fe997387953}, !- Zone Air Inlet Port List
  {d37359a2-649b-431d-8485-f33f7a4a4130}, !- Zone Air Exhaust Port List
  {69017e94-dc9b-4183-83c0-c07f6bb9706e}, !- Zone Air Node Name
  {48cd4abc-b6fb-4c50-b64f-f3c12efcdd4d}, !- Zone Return Air Port List
  ,                                       !- Primary Daylighting Control Name
  ,                                       !- Fraction of Zone Controlled by Primary Daylighting Control
  ,                                       !- Secondary Daylighting Control Name
  ,                                       !- Fraction of Zone Controlled by Secondary Daylighting Control
  ,                                       !- Illuminance Map Name
  ,                                       !- Group Rendering Name
  {f0c9b900-d81c-4dd6-ac80-d4bf2c9147dc}, !- Thermostat Name
  No;                                     !- Use Ideal Air Loads

OS:Node,
  {5f5dd3cb-650b-4bb8-b4c3-a0d76cd9c98b}, !- Handle
  Zone SmallOffice WholeBuilding - Sm Office A end_a - Story Ground Zone Air Node, !- Name
  {69017e94-dc9b-4183-83c0-c07f6bb9706e}, !- Inlet Port
  ;                                       !- Outlet Port

OS:Connection,
  {69017e94-dc9b-4183-83c0-c07f6bb9706e}, !- Handle
  {e14c0fd3-d036-41a2-b1e2-34ea6649eb35}, !- Name
  {eac4f722-4893-4357-9e20-7a7826e34ac3}, !- Source Object
  11,                                     !- Outlet Port
  {5f5dd3cb-650b-4bb8-b4c3-a0d76cd9c98b}, !- Target Object
  2;                                      !- Inlet Port

OS:PortList,
  {1341aed0-5895-455e-8b93-3fe997387953}, !- Handle
  {1a76c610-a299-4d44-aad6-91a4927bd71f}, !- Name
  {eac4f722-4893-4357-9e20-7a7826e34ac3}, !- HVAC Component
  {1f590404-b763-4c43-9c9c-d49a99e20372}; !- Port 1

OS:PortList,
  {d37359a2-649b-431d-8485-f33f7a4a4130}, !- Handle
  {a0c544bd-cbaa-4764-9182-99b482cfe7d3}, !- Name
  {eac4f722-4893-4357-9e20-7a7826e34ac3}; !- HVAC Component

OS:PortList,
  {48cd4abc-b6fb-4c50-b64f-f3c12efcdd4d}, !- Handle
  {ee665311-f7dd-496f-bd4e-5220786694b7}, !- Name
  {eac4f722-4893-4357-9e20-7a7826e34ac3}, !- HVAC Component
  {80f50955-c1d5-409a-81bc-30d4e6be0693}; !- Port 1

OS:Sizing:Zone,
  {3a39c9f1-85f2-41e3-9456-77a538b1a80b}, !- Handle
  {eac4f722-4893-4357-9e20-7a7826e34ac3}, !- Zone or ZoneList Name
  SupplyAirTemperature,                   !- Zone Cooling Design Supply Air Temperature Input Method
  12.7777777777778,                       !- Zone Cooling Design Supply Air Temperature {C}
  11.11,                                  !- Zone Cooling Design Supply Air Temperature Difference {deltaC}
  SupplyAirTemperature,                   !- Zone Heating Design Supply Air Temperature Input Method
  50.0000000000001,                       !- Zone Heating Design Supply Air Temperature {C}
  11.11,                                  !- Zone Heating Design Supply Air Temperature Difference {deltaC}
  0.0085,                                 !- Zone Cooling Design Supply Air Humidity Ratio {kg-H2O/kg-air}
  0.008,                                  !- Zone Heating Design Supply Air Humidity Ratio {kg-H2O/kg-air}
  ,                                       !- Zone Heating Sizing Factor
  ,                                       !- Zone Cooling Sizing Factor
  DesignDay,                              !- Cooling Design Air Flow Method
  ,                                       !- Cooling Design Air Flow Rate {m3/s}
  ,                                       !- Cooling Minimum Air Flow per Zone Floor Area {m3/s-m2}
  ,                                       !- Cooling Minimum Air Flow {m3/s}
  ,                                       !- Cooling Minimum Air Flow Fraction
  DesignDay,                              !- Heating Design Air Flow Method
  ,                                       !- Heating Design Air Flow Rate {m3/s}
  ,                                       !- Heating Maximum Air Flow per Zone Floor Area {m3/s-m2}
  ,                                       !- Heating Maximum Air Flow {m3/s}
  ,                                       !- Heating Maximum Air Flow Fraction
  No,                                     !- Account for Dedicated Outdoor Air System
  NeutralSupplyAir,                       !- Dedicated Outdoor Air System Control Strategy
  autosize,                               !- Dedicated Outdoor Air Low Setpoint Temperature for Design {C}
  autosize;                               !- Dedicated Outdoor Air High Setpoint Temperature for Design {C}

OS:ZoneHVAC:EquipmentList,
  {536100fd-c940-4742-a0cb-1d93fca0341c}, !- Handle
  Zone SmallOffice WholeBuilding - Sm Office A end_a - Story Ground Zone HVAC Equipment List, !- Name
  {eac4f722-4893-4357-9e20-7a7826e34ac3}, !- Thermal Zone
  ,                                       !- Load Distribution Scheme
  {8f859189-6cf3-40f3-83f0-71c3ba7a8470}, !- Zone Equipment 1
  1,                                      !- Zone Equipment Cooling Sequence 1
  1,                                      !- Zone Equipment Heating or No-Load Sequence 1
  ,                                       !- Zone Equipment Sequential Cooling Fraction Schedule Name 1
  ;                                       !- Zone Equipment Sequential Heating Fraction Schedule Name 1

OS:Space,
  {706511c6-4801-407f-8e6f-31f369677db4}, !- Handle
  SmallOffice WholeBuilding - Sm Office B end_a - Story Ground, !- Name
  {335b164b-bda9-4708-9466-08d694a61235}, !- Space Type Name
  ,                                       !- Default Construction Set Name
  ,                                       !- Default Schedule Set Name
  -0,                                     !- Direction of Relative North {deg}
  -80.8539812259112,                      !- X Origin {m}
  -49.3306541506075,                      !- Y Origin {m}
  0,                                      !- Z Origin {m}
  {fe1cf82d-0207-449e-8cc4-3346f59e3b5d}, !- Building Story Name
  {d8f89f20-70b2-4d80-a98e-145b62229ac6}; !- Thermal Zone Name

OS:Surface,
  {fb69e338-2572-49c6-bd9e-471e291944ad}, !- Handle
  Surface 7,                              !- Name
  Floor,                                  !- Surface Type
  ,                                       !- Construction Name
  {706511c6-4801-407f-8e6f-31f369677db4}, !- Space Name
  Ground,                                 !- Outside Boundary Condition
  ,                                       !- Outside Boundary Condition Object
  NoSun,                                  !- Sun Exposure
  NoWind,                                 !- Wind Exposure
  ,                                       !- View Factor to Ground
  ,                                       !- Number of Vertices
  0, -3.5527136788005e-14, 0,             !- X,Y,Z Vertex 1 {m}
  0, 98.661308301215, 0,                  !- X,Y,Z Vertex 2 {m}
  4.572, 98.661308301215, 0,              !- X,Y,Z Vertex 3 {m}
  4.572, -3.5527136788005e-14, 0;         !- X,Y,Z Vertex 4 {m}

OS:Surface,
  {0b8f42ce-a0df-4652-ad45-7e0de8e3c08e}, !- Handle
  Surface 8,                              !- Name
  Wall,                                   !- Surface Type
  ,                                       !- Construction Name
  {706511c6-4801-407f-8e6f-31f369677db4}, !- Space Name
  Outdoors,                               !- Outside Boundary Condition
  ,                                       !- Outside Boundary Condition Object
  SunExposed,                             !- Sun Exposure
  WindExposed,                            !- Wind Exposure
  ,                                       !- View Factor to Ground
  ,                                       !- Number of Vertices
  0, 98.661308301215, 3.048,              !- X,Y,Z Vertex 1 {m}
  0, 98.661308301215, 0,                  !- X,Y,Z Vertex 2 {m}
  0, -3.5527136788005e-14, 0,             !- X,Y,Z Vertex 3 {m}
  0, -3.5527136788005e-14, 3.048;         !- X,Y,Z Vertex 4 {m}

OS:Surface,
  {e3161fbb-5721-4005-957d-9406b22351a2}, !- Handle
  Surface 9,                              !- Name
  Wall,                                   !- Surface Type
  ,                                       !- Construction Name
  {706511c6-4801-407f-8e6f-31f369677db4}, !- Space Name
  Surface,                                !- Outside Boundary Condition
  {1f880752-2b0a-4db9-8826-ad75de32f579}, !- Outside Boundary Condition Object
  NoSun,                                  !- Sun Exposure
  NoWind,                                 !- Wind Exposure
  ,                                       !- View Factor to Ground
  ,                                       !- Number of Vertices
  4.572, 98.661308301215, 3.048,          !- X,Y,Z Vertex 1 {m}
  4.572, 98.661308301215, 0,              !- X,Y,Z Vertex 2 {m}
  0, 98.661308301215, 0,                  !- X,Y,Z Vertex 3 {m}
  0, 98.661308301215, 3.048;              !- X,Y,Z Vertex 4 {m}

OS:Surface,
  {4a564e50-d7db-425f-96bb-661505b5fd71}, !- Handle
  Surface 10,                             !- Name
  Wall,                                   !- Surface Type
  ,                                       !- Construction Name
  {706511c6-4801-407f-8e6f-31f369677db4}, !- Space Name
  Surface,                                !- Outside Boundary Condition
  {035965ae-eb7d-45f2-9e84-dd4ab1fcc020}, !- Outside Boundary Condition Object
  NoSun,                                  !- Sun Exposure
  NoWind,                                 !- Wind Exposure
  ,                                       !- View Factor to Ground
  ,                                       !- Number of Vertices
  4.572, -3.5527136788005e-14, 3.048,     !- X,Y,Z Vertex 1 {m}
  4.572, -3.5527136788005e-14, 0,         !- X,Y,Z Vertex 2 {m}
  4.572, 98.661308301215, 0,              !- X,Y,Z Vertex 3 {m}
  4.572, 98.661308301215, 3.048;          !- X,Y,Z Vertex 4 {m}

OS:Surface,
  {8bbd4e56-dfbc-4a50-8a2a-9b34345f85ae}, !- Handle
  Surface 11,                             !- Name
  Wall,                                   !- Surface Type
  ,                                       !- Construction Name
  {706511c6-4801-407f-8e6f-31f369677db4}, !- Space Name
  Surface,                                !- Outside Boundary Condition
  {8a3cec82-941c-4802-b345-7623eb5bb8e0}, !- Outside Boundary Condition Object
  NoSun,                                  !- Sun Exposure
  NoWind,                                 !- Wind Exposure
  ,                                       !- View Factor to Ground
  ,                                       !- Number of Vertices
  0, -3.5527136788005e-14, 3.048,         !- X,Y,Z Vertex 1 {m}
  0, -3.5527136788005e-14, 0,             !- X,Y,Z Vertex 2 {m}
  4.572, -3.5527136788005e-14, 0,         !- X,Y,Z Vertex 3 {m}
  4.572, -3.5527136788005e-14, 3.048;     !- X,Y,Z Vertex 4 {m}

OS:Surface,
  {aba0c00b-7b3c-4466-92e2-2cfe1a5601c9}, !- Handle
  Surface 12,                             !- Name
  RoofCeiling,                            !- Surface Type
  ,                                       !- Construction Name
  {706511c6-4801-407f-8e6f-31f369677db4}, !- Space Name
  Outdoors,                               !- Outside Boundary Condition
  ,                                       !- Outside Boundary Condition Object
  SunExposed,                             !- Sun Exposure
  WindExposed,                            !- Wind Exposure
  ,                                       !- View Factor to Ground
  ,                                       !- Number of Vertices
  4.572, -3.5527136788005e-14, 3.048,     !- X,Y,Z Vertex 1 {m}
  4.572, 98.661308301215, 3.048,          !- X,Y,Z Vertex 2 {m}
  0, 98.661308301215, 3.048,              !- X,Y,Z Vertex 3 {m}
  0, -3.5527136788005e-14, 3.048;         !- X,Y,Z Vertex 4 {m}

OS:ThermalZone,
  {d8f89f20-70b2-4d80-a98e-145b62229ac6}, !- Handle
  Zone SmallOffice WholeBuilding - Sm Office B end_a - Story Ground, !- Name
  1,                                      !- Multiplier
  ,                                       !- Ceiling Height {m}
  ,                                       !- Volume {m3}
  ,                                       !- Floor Area {m2}
  ,                                       !- Zone Inside Convection Algorithm
  ,                                       !- Zone Outside Convection Algorithm
  ,                                       !- Zone Conditioning Equipment List Name
  {579da012-a7b1-4fa1-ad25-33ea6ca2b146}, !- Zone Air Inlet Port List
  {b381d26d-5b81-4420-8ee2-76508893e0f5}, !- Zone Air Exhaust Port List
  {3a85091d-2429-440d-990a-3aedf6dfff41}, !- Zone Air Node Name
  {7e466799-b983-4d36-968a-142ed2d75d8e}, !- Zone Return Air Port List
  ,                                       !- Primary Daylighting Control Name
  ,                                       !- Fraction of Zone Controlled by Primary Daylighting Control
  ,                                       !- Secondary Daylighting Control Name
  ,                                       !- Fraction of Zone Controlled by Secondary Daylighting Control
  ,                                       !- Illuminance Map Name
  ,                                       !- Group Rendering Name
  {0fbb1cfd-6b95-4245-94de-32cf332b7af1}, !- Thermostat Name
  No;                                     !- Use Ideal Air Loads

OS:Node,
  {c2679251-6c74-47ca-b089-b60b42d1ff5d}, !- Handle
  Zone SmallOffice WholeBuilding - Sm Office B end_a - Story Ground Zone Air Node, !- Name
  {3a85091d-2429-440d-990a-3aedf6dfff41}, !- Inlet Port
  ;                                       !- Outlet Port

OS:Connection,
  {3a85091d-2429-440d-990a-3aedf6dfff41}, !- Handle
  {434cec13-17ec-4f47-a729-a7a871c0eb87}, !- Name
  {d8f89f20-70b2-4d80-a98e-145b62229ac6}, !- Source Object
  11,                                     !- Outlet Port
  {c2679251-6c74-47ca-b089-b60b42d1ff5d}, !- Target Object
  2;                                      !- Inlet Port

OS:PortList,
  {579da012-a7b1-4fa1-ad25-33ea6ca2b146}, !- Handle
  {f2e26552-85d6-4758-ad2b-cc787aa5ec87}, !- Name