
OS:Version,
  {72c65122-08f8-4256-a0aa-a3434130bde2}, !- Handle
  3.1.0;                                  !- Version Identifier

OS:WeatherFile,
  {13b38cb9-beb7-4713-a75c-a2f61044958d}, !- Handle
  Climate Zone 3,                         !- City
  CA,                                     !- State Province Region
  USA,                                    !- Country
  CTZRV2,                                 !- Data Source
  724930,                                 !- WMO Number
  28.51768858,                            !- Latitude {deg}
  -81.3790388,                            !- Longitude {deg}
  -8,                                     !- Time Zone {hr}
  2,                                      !- Elevation {m}
  /Users/llin/Documents/repo/edv-experiment-1/data/weather/temporary/temporary.epw, !- Url
  ;                                       !- Checksum

OS:Site,
  {c144accf-3701-4e4e-a7fd-6fecda020d9a}, !- Handle
  Climate Zone 3_CA_USA,                  !- Name
  28.51768858,                            !- Latitude {deg}
  -81.3790388,                            !- Longitude {deg}
  -8,                                     !- Time Zone {hr}
  2,                                      !- Elevation {m}
  City;                                   !- Terrain

OS:Site:WaterMainsTemperature,
  {1f6475b0-f63c-4b6f-9b4e-8447c754dfe6}, !- Handle
  Correlation,                            !- Calculation Method
  ,                                       !- Temperature Schedule Name
  14.1416666666667,                       !- Annual Average Outdoor Air Temperature {C}
  7.8;                                    !- Maximum Difference In Monthly Average Outdoor Air Temperatures {deltaC}

OS:ClimateZones,
  {2e493106-1e33-4beb-a117-c373f2e8934d}, !- Handle
  ASHRAE,                                 !- Climate Zone Institution Name 1
  ANSI/ASHRAE Standard 169,               !- Climate Zone Document Name 1
  2006,                                   !- Climate Zone Document Year 1
  3C;                                     !- Climate Zone Value 1

OS:SizingPeriod:DesignDay,
  {41bc1744-5ba2-44ff-8f16-8f0b99606b56}, !- Handle
  Climate Zone 3 Ann Clg .4% Condns WB=>MDB, !- Name
  25.5,                                   !- Maximum Dry-Bulb Temperature {C}
  7.4,                                    !- Daily Dry-Bulb Temperature Range {deltaC}
  19.8,                                   !- Humidity Indicating Conditions at Maximum Dry-Bulb
  101301,                                 !- Barometric Pressure {Pa}
  4.9,                                    !- Wind Speed {m/s}
  290,                                    !- Wind Direction {deg}
  0,                                      !- Sky Clearness
  0,                                      !- Rain Indicator
  0,                                      !- Snow Indicator
  21,                                     !- Day of Month
  8,                                      !- Month
  SummerDesignDay,                        !- Day Type
  0,                                      !- Daylight Saving Time Indicator
  Wetbulb,                                !- Humidity Indicating Type
  ,                                       !- Humidity Indicating Day Schedule Name
  DefaultMultipliers,                     !- Dry-Bulb Temperature Range Modifier Type
  ,                                       !- Dry-Bulb Temperature Range Modifier Schedule Name
  ASHRAETau,                              !- Solar Model Indicator
  ,                                       !- Beam Solar Day Schedule Name
  ,                                       !- Diffuse Solar Day Schedule Name
  0.367,                                  !- ASHRAE Taub {dimensionless}
  2.428;                                  !- ASHRAE Taud {dimensionless}

OS:SizingPeriod:DesignDay,
  {39355564-e66c-4a25-b480-d25dfc2fccc7}, !- Handle
  Climate Zone 3 Ann Clg .4% Condns DB=>MWB, !- Name
  27.7,                                   !- Maximum Dry-Bulb Temperature {C}
  7.4,                                    !- Daily Dry-Bulb Temperature Range {deltaC}
  18.3,                                   !- Humidity Indicating Conditions at Maximum Dry-Bulb
  101301,                                 !- Barometric Pressure {Pa}
  4.9,                                    !- Wind Speed {m/s}
  290,                                    !- Wind Direction {deg}
  0,                                      !- Sky Clearness
  0,                                      !- Rain Indicator
  0,                                      !- Snow Indicator
  21,                                     !- Day of Month
  8,                                      !- Month
  SummerDesignDay,                        !- Day Type
  0,                                      !- Daylight Saving Time Indicator
  Wetbulb,                                !- Humidity Indicating Type
  ,                                       !- Humidity Indicating Day Schedule Name
  DefaultMultipliers,                     !- Dry-Bulb Temperature Range Modifier Type
  ,                                       !- Dry-Bulb Temperature Range Modifier Schedule Name
  ASHRAETau,                              !- Solar Model Indicator
  ,                                       !- Beam Solar Day Schedule Name
  ,                                       !- Diffuse Solar Day Schedule Name
  0.367,                                  !- ASHRAE Taub {dimensionless}
  2.428;                                  !- ASHRAE Taud {dimensionless}

OS:SizingPeriod:DesignDay,
  {af90945b-b984-48cb-beb1-3710051f36b9}, !- Handle
  Climate Zone 3 Ann Htg 99.6% Condns DB, !- Name
  2.9,                                    !- Maximum Dry-Bulb Temperature {C}
  0,                                      !- Daily Dry-Bulb Temperature Range {deltaC}
  2.9,                                    !- Humidity Indicating Conditions at Maximum Dry-Bulb
  101301,                                 !- Barometric Pressure {Pa}
  2.2,                                    !- Wind Speed {m/s}
  50,                                     !- Wind Direction {deg}
  0,                                      !- Sky Clearness
  0,                                      !- Rain Indicator
  0,                                      !- Snow Indicator
  21,                                     !- Day of Month
  1,                                      !- Month
  WinterDesignDay,                        !- Day Type
  0,                                      !- Daylight Saving Time Indicator
  Wetbulb,                                !- Humidity Indicating Type
  ,                                       !- Humidity Indicating Day Schedule Name
  DefaultMultipliers,                     !- Dry-Bulb Temperature Range Modifier Type
  ,                                       !- Dry-Bulb Temperature Range Modifier Schedule Name
  ASHRAEClearSky;                         !- Solar Model Indicator

OS:YearDescription,
  {7246c22a-aa11-4e39-b77b-e73e23686134}, !- Handle
  2019,                                   !- Calendar Year
  ,                                       !- Day of Week for Start Day
  ;                                       !- Is Leap Year

OS:SpaceType,
  {8de8225a-b38e-4c8f-b919-07b6bdd9b44b}, !- Handle
  MediumOffice WholeBuilding - Md Office - 90.1-2007, !- Name
  ,                                       !- Default Construction Set Name
  {3315c3a8-0331-4939-bfb0-d3845f12860e}, !- Default Schedule Set Name
  ,                                       !- Group Rendering Name
  {789817a4-dd90-4052-af99-3a2ea800466a}, !- Design Specification Outdoor Air Object Name
  ,                                       !- Standards Template
  Office,                                 !- Standards Building Type
  WholeBuilding - Md Office;              !- Standards Space Type

OS:Building,
  {42cbc56e-2f9b-45f5-9c4b-24be8f5f6ee0}, !- Handle
  90.1-2007|MediumOffice|MediumOffice,    !- Name
  ,                                       !- Building Sector Type
  ,                                       !- North Axis {deg}
  ,                                       !- Nominal Floor to Floor Height {m}
  ,                                       !- Space Type Name
  {323ff21c-5f15-4bb5-aa18-55f1fb21b0b1}, !- Default Construction Set Name
  {df76fe94-f589-45b6-8011-05bb2a786872}, !- Default Schedule Set Name
  ,                                       !- Standards Number of Stories
  ,                                       !- Standards Number of Above Ground Stories
  ,                                       !- Standards Template
  Office;                                 !- Standards Building Type

OS:BuildingStory,
  {3f8ed529-e46f-4b5c-bfc2-e77bc7586cc9}, !- Handle
  Story Ground,                           !- Name
  0,                                      !- Nominal Z Coordinate {m}
  3.9624,                                 !- Nominal Floor to Floor Height {m}
  ,                                       !- Default Construction Set Name
  ,                                       !- Default Schedule Set Name
  ;                                       !- Group Rendering Name

OS:Space,
  {aa1d5e6c-eb29-4294-a953-5af6562e60ed}, !- Handle
  MediumOffice WholeBuilding - Md Office A end_a - Story Ground, !- Name
  {8de8225a-b38e-4c8f-b919-07b6bdd9b44b}, !- Space Type Name
  ,                                       !- Default Construction Set Name
  ,                                       !- Default Schedule Set Name
  -0,                                     !- Direction of Relative North {deg}
  -116.210071561461,                      !- X Origin {m}
  -77.4733810409743,                      !- Y Origin {m}
  0,                                      !- Z Origin {m}
  {3f8ed529-e46f-4b5c-bfc2-e77bc7586cc9}, !- Building Story Name
  {33474811-1d3d-4d1d-8417-8e371f8072eb}; !- Thermal Zone Name

OS:Surface,
  {e42d3ea7-5008-416c-88c5-9594db8ed65a}, !- Handle
  Surface 1,                              !- Name
  Floor,                                  !- Surface Type
  ,                                       !- Construction Name
  {aa1d5e6c-eb29-4294-a953-5af6562e60ed}, !- Space Name
  Ground,                                 !- Outside Boundary Condition
  ,                                       !- Outside Boundary Condition Object
  NoSun,                                  !- Sun Exposure
  NoWind,                                 !- Wind Exposure
  ,                                       !- View Factor to Ground
  ,                                       !- Number of Vertices
  4.83169060316868e-13, 2.8421709430404e-14, 0, !- X,Y,Z Vertex 1 {m}
  4.83169060316868e-13, 4.57200000000003, 0, !- X,Y,Z Vertex 2 {m}
  4.57200000000049, 4.57200000000003, 0,  !- X,Y,Z Vertex 3 {m}
  4.57200000000049, 2.8421709430404e-14, 0; !- X,Y,Z Vertex 4 {m}

OS:Surface,
  {1f779a2c-f44e-4a2b-944f-5ab58a4c4e36}, !- Handle
  Surface 2,                              !- Name
  Wall,                                   !- Surface Type
  ,                                       !- Construction Name
  {aa1d5e6c-eb29-4294-a953-5af6562e60ed}, !- Space Name
  Outdoors,                               !- Outside Boundary Condition
  ,                                       !- Outside Boundary Condition Object
  SunExposed,                             !- Sun Exposure
  WindExposed,                            !- Wind Exposure
  ,                                       !- View Factor to Ground
  ,                                       !- Number of Vertices
  4.83169060316868e-13, 4.57200000000003, 3.9624, !- X,Y,Z Vertex 1 {m}
  4.83169060316868e-13, 4.57200000000003, 0, !- X,Y,Z Vertex 2 {m}
  4.83169060316868e-13, 2.8421709430404e-14, 0, !- X,Y,Z Vertex 3 {m}
  4.83169060316868e-13, 2.8421709430404e-14, 3.9624; !- X,Y,Z Vertex 4 {m}

OS:Surface,
  {7d1d5e8d-870f-4732-b367-187f1ae35b12}, !- Handle
  Surface 3,                              !- Name
  Wall,                                   !- Surface Type
  ,                                       !- Construction Name
  {aa1d5e6c-eb29-4294-a953-5af6562e60ed}, !- Space Name
  Surface,                                !- Outside Boundary Condition
  {8efb0df2-3bfd-434a-a0bd-1838462f7a97}, !- Outside Boundary Condition Object
  NoSun,                                  !- Sun Exposure
  NoWind,                                 !- Wind Exposure
  ,                                       !- View Factor to Ground
  ,                                       !- Number of Vertices
  4.57200000000049, 4.57200000000003, 3.9624, !- X,Y,Z Vertex 1 {m}
  4.57200000000049, 4.57200000000003, 0,  !- X,Y,Z Vertex 2 {m}
  4.83169060316868e-13, 4.57200000000003, 0, !- X,Y,Z Vertex 3 {m}
  4.83169060316868e-13, 4.57200000000003, 3.9624; !- X,Y,Z Vertex 4 {m}

OS:Surface,
  {42285c71-5f23-4259-8d46-ad31b3a226e3}, !- Handle
  Surface 4,                              !- Name
  Wall,                                   !- Surface Type
  ,                                       !- Construction Name
  {aa1d5e6c-eb29-4294-a953-5af6562e60ed}, !- Space Name
  Surface,                                !- Outside Boundary Condition
  {274ce999-3404-4bee-995e-19abe9d5725b}, !- Outside Boundary Condition Object
  NoSun,                                  !- Sun Exposure
  NoWind,                                 !- Wind Exposure
  ,                                       !- View Factor to Ground
  ,                                       !- Number of Vertices
  4.57200000000049, 2.8421709430404e-14, 3.9624, !- X,Y,Z Vertex 1 {m}
  4.57200000000049, 2.8421709430404e-14, 0, !- X,Y,Z Vertex 2 {m}
  4.57200000000049, 4.57200000000003, 0,  !- X,Y,Z Vertex 3 {m}
  4.57200000000049, 4.57200000000003, 3.9624; !- X,Y,Z Vertex 4 {m}

OS:Surface,
  {5e594dfe-57c6-419c-be46-bd17e8ba05a7}, !- Handle
  Surface 5,                              !- Name
  Wall,                                   !- Surface Type
  ,                                       !- Construction Name
  {aa1d5e6c-eb29-4294-a953-5af6562e60ed}, !- Space Name
  Outdoors,                               !- Outside Boundary Condition
  ,                                       !- Outside Boundary Condition Object
  SunExposed,                             !- Sun Exposure
  WindExposed,                            !- Wind Exposure
  ,                                       !- View Factor to Ground
  ,                                       !- Number of Vertices
  4.83169060316868e-13, 2.8421709430404e-14, 3.9624, !- X,Y,Z Vertex 1 {m}
  4.83169060316868e-13, 2.8421709430404e-14, 0, !- X,Y,Z Vertex 2 {m}
  4.57200000000049, 2.8421709430404e-14, 0, !- X,Y,Z Vertex 3 {m}
  4.57200000000049, 2.8421709430404e-14, 3.9624; !- X,Y,Z Vertex 4 {m}

OS:Surface,
  {b7d48633-58d2-4cd9-bf8d-94494a48d9e9}, !- Handle
  Surface 6,                              !- Name
  RoofCeiling,                            !- Surface Type
  ,                                       !- Construction Name
  {aa1d5e6c-eb29-4294-a953-5af6562e60ed}, !- Space Name
  Outdoors,                               !- Outside Boundary Condition
  ,                                       !- Outside Boundary Condition Object
  SunExposed,                             !- Sun Exposure
  WindExposed,                            !- Wind Exposure
  ,                                       !- View Factor to Ground
  ,                                       !- Number of Vertices
  4.57200000000049, 2.8421709430404e-14, 3.9624, !- X,Y,Z Vertex 1 {m}
  4.57200000000049, 4.57200000000003, 3.9624, !- X,Y,Z Vertex 2 {m}
  4.83169060316868e-13, 4.57200000000003, 3.9624, !- X,Y,Z Vertex 3 {m}
  4.83169060316868e-13, 2.8421709430404e-14, 3.9624; !- X,Y,Z Vertex 4 {m}

OS:ThermalZone,
  {33474811-1d3d-4d1d-8417-8e371f8072eb}, !- Handle
  Zone MediumOffice WholeBuilding - Md Office A end_a - Story Ground, !- Name
  1,                                      !- Multiplier
  ,                                       !- Ceiling Height {m}
  ,                                       !- Volume {m3}
  ,                                       !- Floor Area {m2}
  ,                                       !- Zone Inside Convection Algorithm
  ,                                       !- Zone Outside Convection Algorithm
  ,                                       !- Zone Conditioning Equipment List Name
  {9cc2bbe2-0dc2-4d80-ab23-e3a097a30f42}, !- Zone Air Inlet Port List
  {2120669c-2c28-4d90-9842-9da678ffef3c}, !- Zone Air Exhaust Port List
  {ae60927b-c68f-4e1d-93ee-c6fdc6d99f49}, !- Zone Air Node Name
  {9a6e484f-9d1b-4cdd-afcd-cb02a513dc85}, !- Zone Return Air Port List
  ,                                       !- Primary Daylighting Control Name
  ,                                       !- Fraction of Zone Controlled by Primary Daylighting Control
  ,                                       !- Secondary Daylighting Control Name
  ,                                       !- Fraction of Zone Controlled by Secondary Daylighting Control
  ,                                       !- Illuminance Map Name
  ,                                       !- Group Rendering Name
  {8d9d498c-9729-4f07-ad2f-544b46fd6e56}, !- Thermostat Name
  No;                                     !- Use Ideal Air Loads

OS:Node,
  {9c6f35bc-1020-47c7-a0a7-1168c2c65f07}, !- Handle
  Zone MediumOffice WholeBuilding - Md Office A end_a - Story Ground Zone Air Node, !- Name
  {ae60927b-c68f-4e1d-93ee-c6fdc6d99f49}, !- Inlet Port
  ;                                       !- Outlet Port

OS:Connection,
  {ae60927b-c68f-4e1d-93ee-c6fdc6d99f49}, !- Handle
  {5b8f9858-4d70-42bb-864f-8eb402c97658}, !- Name
  {33474811-1d3d-4d1d-8417-8e371f8072eb}, !- Source Object
  11,                                     !- Outlet Port
  {9c6f35bc-1020-47c7-a0a7-1168c2c65f07}, !- Target Object
  2;                                      !- Inlet Port

OS:PortList,
  {9cc2bbe2-0dc2-4d80-ab23-e3a097a30f42}, !- Handle
  {f351d6e5-f5e7-41df-ab06-7ab8e51e9490}, !- Name
  {33474811-1d3d-4d1d-8417-8e371f8072eb}, !- HVAC Component
  {5ebf65fa-ffb0-4889-82d7-198a2bb12c34}; !- Port 1

OS:PortList,
  {2120669c-2c28-4d90-9842-9da678ffef3c}, !- Handle
  {c1782d90-f41a-423d-8f2c-e67bde368ab4}, !- Name
  {33474811-1d3d-4d1d-8417-8e371f8072eb}; !- HVAC Component

OS:PortList,
  {9a6e484f-9d1b-4cdd-afcd-cb02a513dc85}, !- Handle
  {1b306403-7ff9-4d47-91eb-3534c7c69c76}, !- Name
  {33474811-1d3d-4d1d-8417-8e371f8072eb}, !- HVAC Component
  {9a05d865-4725-434b-bbe8-fbfd88312a50}; !- Port 1

OS:Sizing:Zone,
  {f1bfdc09-b1cf-4785-9135-31f537fe2f38}, !- Handle
  {33474811-1d3d-4d1d-8417-8e371f8072eb}, !- Zone or ZoneList Name
  SupplyAirTemperature,                   !- Zone Cooling Design Supply Air Temperature Input Method
  12.7777777777778,                       !- Zone Cooling Design Supply Air Temperature {C}
  11.11,                                  !- Zone Cooling Design Supply Air Temperature Difference {deltaC}
  SupplyAirTemperature,                   !- Zone Heating Design Supply Air Temperature Input Method
  50.0000000000001,                       !- Zone Heating Design Supply Air Temperature {C}
  11.11,                                  !- Zone Heating Design Supply Air Temperature Difference {deltaC}
  0.0085,                                 !- Zone Cooling Design Supply Air Humidity Ratio {kg-H2O/kg-air}
  0.008,                                  !- Zone Heating Design Supply Air Humidity Ratio {kg-H2O/kg-air}
  ,                                       !- Zone Heating Sizing Factor
  ,                                       !- Zone Cooling Sizing Factor
  DesignDay,                              !- Cooling Design Air Flow Method
  ,                                       !- Cooling Design Air Flow Rate {m3/s}
  ,                                       !- Cooling Minimum Air Flow per Zone Floor Area {m3/s-m2}
  ,                                       !- Cooling Minimum Air Flow {m3/s}
  ,                                       !- Cooling Minimum Air Flow Fraction
  DesignDay,                              !- Heating Design Air Flow Method
  ,                                       !- Heating Design Air Flow Rate {m3/s}
  ,                                       !- Heating Maximum Air Flow per Zone Floor Area {m3/s-m2}
  ,                                       !- Heating Maximum Air Flow {m3/s}
  ,                                       !- Heating Maximum Air Flow Fraction
  No,                                     !- Account for Dedicated Outdoor Air System
  NeutralSupplyAir,                       !- Dedicated Outdoor Air System Control Strategy
  autosize,                               !- Dedicated Outdoor Air Low Setpoint Temperature for Design {C}
  autosize;                               !- Dedicated Outdoor Air High Setpoint Temperature for Design {C}

OS:ZoneHVAC:EquipmentList,
  {9dfcb9af-1cea-449b-8cb1-e0330956f225}, !- Handle
  Zone MediumOffice WholeBuilding - Md Office A end_a - Story Ground Zone HVAC Equipment List, !- Name
  {33474811-1d3d-4d1d-8417-8e371f8072eb}, !- Thermal Zone
  ,                                       !- Load Distribution Scheme
  {719d266a-464a-4848-88a2-a94e5bb48041}, !- Zone Equipment 1
  1,                                      !- Zone Equipment Cooling Sequence 1
  1,                                      !- Zone Equipment Heating or No-Load Sequence 1
  ,                                       !- Zone Equipment Sequential Cooling Fraction Schedule Name 1
  ;                                       !- Zone Equipment Sequential Heating Fraction Schedule Name 1

OS:Space,
  {80b3ec63-413d-4a72-8e21-0b53d5adb98a}, !- Handle
  MediumOffice WholeBuilding - Md Office B end_a - Story Ground, !- Name
  {8de8225a-b38e-4c8f-b919-07b6bdd9b44b}, !- Space Type Name
  ,                                       !- Default Construction Set Name
  ,                                       !- Default Schedule Set Name
  -0,                                     !- Direction of Relative North {deg}
  -116.210071561461,                      !- X Origin {m}
  -72.9013810409743,                      !- Y Origin {m}
  0,                                      !- Z Origin {m}
  {3f8ed529-e46f-4b5c-bfc2-e77bc7586cc9}, !- Building Story Name
  {af188897-deab-49eb-a867-4c936905510d}; !- Thermal Zone Name

OS:Surface,
  {35399a5d-b16c-44a1-a466-583dfe1a4b37}, !- Handle
  Surface 7,                              !- Name
  Floor,                                  !- Surface Type
  ,                                       !- Construction Name
  {80b3ec63-413d-4a72-8e21-0b53d5adb98a}, !- Space Name
  Ground,                                 !- Outside Boundary Condition
  ,                                       !- Outside Boundary Condition Object
  NoSun,                                  !- Sun Exposure
  NoWind,                                 !- Wind Exposure
  ,                                       !- View Factor to Ground
  ,                                       !- Number of Vertices
  4.83169060316868e-13, 2.8421709430404e-14, 0, !- X,Y,Z Vertex 1 {m}
  4.83169060316868e-13, 145.802762081949, 0, !- X,Y,Z Vertex 2 {m}
  4.57200000000049, 145.802762081949, 0,  !- X,Y,Z Vertex 3 {m}
  4.57200000000049, 2.8421709430404e-14, 0; !- X,Y,Z Vertex 4 {m}

OS:Surface,
  {879290a5-1896-4246-af2a-b65d95b094b8}, !- Handle
  Surface 8,                              !- Name
  Wall,                                   !- Surface Type
  ,                                       !- Construction Name
  {80b3ec63-413d-4a72-8e21-0b53d5adb98a}, !- Space Name
  Outdoors,                               !- Outside Boundary Condition
  ,                                       !- Outside Boundary Condition Object
  SunExposed,                             !- Sun Exposure
  WindExposed,                            !- Wind Exposure
  ,                                       !- View Factor to Ground
  ,                                       !- Number of Vertices
  4.83169060316868e-13, 145.802762081949, 3.9624, !- X,Y,Z Vertex 1 {m}
  4.83169060316868e-13, 145.802762081949, 0, !- X,Y,Z Vertex 2 {m}
  4.83169060316868e-13, 2.8421709430404e-14, 0, !- X,Y,Z Vertex 3 {m}
  4.83169060316868e-13, 2.8421709430404e-14, 3.9624; !- X,Y,Z Vertex 4 {m}

OS:Surface,
  {787831c4-65ab-4e2e-8407-330b170eb351}, !- Handle
  Surface 9,                              !- Name
  Wall,                                   !- Surface Type
  ,                                       !- Construction Name
  {80b3ec63-413d-4a72-8e21-0b53d5adb98a}, !- Space Name
  Surface,                                !- Outside Boundary Condition
  {07eb7bb5-0fb8-40d2-9895-18458671eb8c}, !- Outside Boundary Condition Object
  NoSun,                                  !- Sun Exposure
  NoWind,                                 !- Wind Exposure
  ,                                       !- View Factor to Ground
  ,                                       !- Number of Vertices
  4.57200000000049, 145.802762081949, 3.9624, !- X,Y,Z Vertex 1 {m}
  4.57200000000049, 145.802762081949, 0,  !- X,Y,Z Vertex 2 {m}
  4.83169060316868e-13, 145.802762081949, 0, !- X,Y,Z Vertex 3 {m}
  4.83169060316868e-13, 145.802762081949, 3.9624; !- X,Y,Z Vertex 4 {m}

OS:Surface,
  {7d36b7c2-89b1-4cd7-95d2-4a0662dc61df}, !- Handle
  Surface 10,                             !- Name
  Wall,                                   !- Surface Type
  ,                                       !- Construction Name
  {80b3ec63-413d-4a72-8e21-0b53d5adb98a}, !- Space Name
  Surface,                                !- Outside Boundary Condition
  {835cf814-08aa-474f-8e13-0bc394081e96}, !- Outside Boundary Condition Object
  NoSun,                                  !- Sun Exposure
  NoWind,                                 !- Wind Exposure
  ,                                       !- View Factor to Ground
  ,                                       !- Number of Vertices
  4.57200000000049, 2.8421709430404e-14, 3.9624, !- X,Y,Z Vertex 1 {m}
  4.57200000000049, 2.8421709430404e-14, 0, !- X,Y,Z Vertex 2 {m}
  4.57200000000049, 145.802762081949, 0,  !- X,Y,Z Vertex 3 {m}
  4.57200000000049, 145.802762081949, 3.9624; !- X,Y,Z Vertex 4 {m}

OS:Surface,
  {8efb0df2-3bfd-434a-a0bd-1838462f7a97}, !- Handle
  Surface 11,                             !- Name
  Wall,                                   !- Surface Type
  ,                                       !- Construction Name
  {80b3ec63-413d-4a72-8e21-0b53d5adb98a}, !- Space Name
  Surface,                                !- Outside Boundary Condition
  {7d1d5e8d-870f-4732-b367-187f1ae35b12}, !- Outside Boundary Condition Object
  NoSun,                                  !- Sun Exposure
  NoWind,                                 !- Wind Exposure
  ,                                       !- View Factor to Ground
  ,                                       !- Number of Vertices
  4.83169060316868e-13, 2.8421709430404e-14, 3.9624, !- X,Y,Z Vertex 1 {m}
  4.83169060316868e-13, 2.8421709430404e-14, 0, !- X,Y,Z Vertex 2 {m}
  4.57200000000049, 2.8421709430404e-14, 0, !- X,Y,Z Vertex 3 {m}
  4.57200000000049, 2.8421709430404e-14, 3.9624; !- X,Y,Z Vertex 4 {m}

OS:Surface,
  {15bd2d12-0843-4b45-94d4-e3c58ba72c92}, !- Handle
  Surface 12,                             !- Name
  RoofCeiling,                            !- Surface Type
  ,                                       !- Construction Name
  {80b3ec63-413d-4a72-8e21-0b53d5adb98a}, !- Space Name
  Outdoors,                               !- Outside Boundary Condition
  ,                                       !- Outside Boundary Condition Object
  SunExposed,                             !- Sun Exposure
  WindExposed,                            !- Wind Exposure
  ,                                       !- View Factor to Ground
  ,                                       !- Number of Vertices
  4.57200000000049, 2.8421709430404e-14, 3.9624, !- X,Y,Z Vertex 1 {m}
  4.57200000000049, 145.802762081949, 3.9624, !- X,Y,Z Vertex 2 {m}
  4.83169060316868e-13, 145.802762081949, 3.9624, !- X,Y,Z Vertex 3 {m}
  4.83169060316868e-13, 2.8421709430404e-14, 3.9624; !- X,Y,Z Vertex 4 {m}

OS:ThermalZone,
  {af188897-deab-49eb-a867-4c936905510d}, !- Handle
  Zone MediumOffice WholeBuilding - Md Office B end_a - Story Ground, !- Name
  1,                                      !- Multiplier
  ,                                       !- Ceiling Height {m}
  ,                                       !- Volume {m3}
  ,                                       !- Floor Area {m2}
  ,                                       !- Zone Inside Convection Algorithm
  ,                                       !- Zone Outside Convection Algorithm
  ,                                       !- Zone Conditioning Equipment List Name
  {0007883e-d575-420b-a0ac-687ce585f8be}, !- Zone Air Inlet Port List
  {d72579e7-8821-4123-accd-0ed4ce08641d}, !- Zone Air Exhaust Port List
  {8e997637-ecb0-4c22-a8f7-c660cb5461c7}, !- Zone Air Node Name
  {e0e93f23-5823-47ba-bd72-6866cb0b73c2}, !- Zone Return Air Port List
  ,                                       !- Primary Daylighting Control Name
  ,                                       !- Fraction of Zone Controlled by Primary Daylighting Control
  ,                                       !- Secondary Daylighting Control Name
  ,                                       !- Fraction of Zone Controlled by Secondary Daylighting Control
  ,                                       !- Illuminance Map Name
  ,                                       !- Group Rendering Name
  {1c79d467-475e-4b60-978b-4505702abe83}, !- Thermostat Name
  No;                                     !- Use Ideal Air Loads

OS:Node,
  {0d6794f6-cd9a-4c37-92e2-b6d84cf35ef8}, !- Handle
  Zone MediumOffice WholeBuilding - Md Office B end_a - Story Ground Zone Air Node, !- Name
  {8e997637-ecb0-4c22-a8f7-c660cb5461c7}, !- Inlet Port
  ;                                       !- Outlet Port

OS:Connection,
  {8e997637-ecb0-4c22-a8f7-c660cb5461c7}, !- Handle
  {c492afd6-a253-49f3-8adc-c319f04ec9af}, !- Name
  {af188897-deab-49eb-a867-4c936905510d}, !- Source Object