
Version,
  9.4;                                    !- Version Identifier

Timestep,
  6;                                      !- Number of Timesteps per Hour

LifeCycleCost:Parameters,
  Life Cycle Cost Parameters,             !- Name
  EndOfYear,                              !- Discounting Convention
  ConstantDollar,                         !- Inflation Approach
  0.03,                                   !- Real Discount Rate
  ,                                       !- Nominal Discount Rate
  ,                                       !- Inflation
  ,                                       !- Base Date Month
  2011,                                   !- Base Date Year
  ,                                       !- Service Date Month
  2011,                                   !- Service Date Year
  25,                                     !- Length of Study Period in Years
  ,                                       !- Tax rate
  None;                                   !- Depreciation Method

LifeCycleCost:UsePriceEscalation,
  U.S. Avg  Commercial-Electricity,       !- Name
  Electricity,                            !- Resource
  2011,                                   !- Escalation Start Year
  January,                                !- Escalation Start Month
  0.9838,                                 !- Year Escalation 1
  0.9730,                                 !- Year Escalation 2
  0.9632,                                 !- Year Escalation 3
  0.9611,                                 !- Year Escalation 4
  0.9571,                                 !- Year Escalation 5
  0.9553,                                 !- Year Escalation 6
  0.9539,                                 !- Year Escalation 7
  0.9521,                                 !- Year Escalation 8
  0.9546,                                 !- Year Escalation 9
  0.9550,                                 !- Year Escalation 10
  0.9553,                                 !- Year Escalation 11
  0.9564,                                 !- Year Escalation 12
  0.9575,                                 !- Year Escalation 13
  0.9596,                                 !- Year Escalation 14
  0.9618,                                 !- Year Escalation 15
  0.9614,                                 !- Year Escalation 16
  0.9618,                                 !- Year Escalation 17
  0.9618,                                 !- Year Escalation 18
  0.9593,                                 !- Year Escalation 19
  0.9589,                                 !- Year Escalation 20
  0.9607,                                 !- Year Escalation 21
  0.9625,                                 !- Year Escalation 22
  0.9650,                                 !- Year Escalation 23
  0.9708,                                 !- Year Escalation 24
  0.9751,                                 !- Year Escalation 25
  0.9762,                                 !- Year Escalation 26
  0.9766,                                 !- Year Escalation 27
  0.9766,                                 !- Year Escalation 28
  0.9769,                                 !- Year Escalation 29
  0.9773;                                 !- Year Escalation 30

LifeCycleCost:UsePriceEscalation,
  U.S. Avg  Commercial-Distillate Oil,    !- Name
  FuelOilNo1,                             !- Resource
  2011,                                   !- Escalation Start Year
  January,                                !- Escalation Start Month
  0.9714,                                 !- Year Escalation 1
  0.9730,                                 !- Year Escalation 2
  0.9942,                                 !- Year Escalation 3
  1.0164,                                 !- Year Escalation 4
  1.0541,                                 !- Year Escalation 5
  1.0928,                                 !- Year Escalation 6
  1.1267,                                 !- Year Escalation 7
  1.1580,                                 !- Year Escalation 8
  1.1792,                                 !- Year Escalation 9
  1.1967,                                 !- Year Escalation 10
  1.2200,                                 !- Year Escalation 11
  1.2333,                                 !- Year Escalation 12
  1.2566,                                 !- Year Escalation 13
  1.2709,                                 !- Year Escalation 14
  1.2826,                                 !- Year Escalation 15
  1.2985,                                 !- Year Escalation 16
  1.3102,                                 !- Year Escalation 17
  1.3250,                                 !- Year Escalation 18
  1.3261,                                 !- Year Escalation 19
  1.3282,                                 !- Year Escalation 20
  1.3324,                                 !- Year Escalation 21
  1.3356,                                 !- Year Escalation 22
  1.3431,                                 !- Year Escalation 23
  1.3510,                                 !- Year Escalation 24
  1.3568,                                 !- Year Escalation 25
  1.3606,                                 !- Year Escalation 26
  1.3637,                                 !- Year Escalation 27
  1.3674,                                 !- Year Escalation 28
  1.3706,                                 !- Year Escalation 29
  1.3743;                                 !- Year Escalation 30

LifeCycleCost:UsePriceEscalation,
  U.S. Avg  Commercial-Residual Oil,      !- Name
  FuelOilNo2,                             !- Resource
  2011,                                   !- Escalation Start Year
  January,                                !- Escalation Start Month
  0.8469,                                 !- Year Escalation 1
  0.8257,                                 !- Year Escalation 2
  0.8681,                                 !- Year Escalation 3
  0.8988,                                 !- Year Escalation 4
  0.9289,                                 !- Year Escalation 5
  0.9604,                                 !- Year Escalation 6
  0.9897,                                 !- Year Escalation 7
  1.0075,                                 !- Year Escalation 8
  1.0314,                                 !- Year Escalation 9
  1.0554,                                 !- Year Escalation 10
  1.0861,                                 !- Year Escalation 11
  1.1278,                                 !- Year Escalation 12
  1.1497,                                 !- Year Escalation 13
  1.1620,                                 !- Year Escalation 14
  1.1743,                                 !- Year Escalation 15
  1.1852,                                 !- Year Escalation 16
  1.1948,                                 !- Year Escalation 17
  1.2037,                                 !- Year Escalation 18
  1.2071,                                 !- Year Escalation 19
  1.2119,                                 !- Year Escalation 20
  1.2139,                                 !- Year Escalation 21
  1.2194,                                 !- Year Escalation 22
  1.2276,                                 !- Year Escalation 23
  1.2365,                                 !- Year Escalation 24
  1.2420,                                 !- Year Escalation 25
  1.2461,                                 !- Year Escalation 26
  1.2509,                                 !- Year Escalation 27
  1.2550,                                 !- Year Escalation 28
  1.2591,                                 !- Year Escalation 29
  1.2638;                                 !- Year Escalation 30

LifeCycleCost:UsePriceEscalation,
  U.S. Avg  Commercial-Natural gas,       !- Name
  NaturalGas,                             !- Resource
  2011,                                   !- Escalation Start Year
  January,                                !- Escalation Start Month
  0.9823,                                 !- Year Escalation 1
  0.9557,                                 !- Year Escalation 2
  0.9279,                                 !- Year Escalation 3
  0.9257,                                 !- Year Escalation 4
  0.9346,                                 !- Year Escalation 5
  0.9412,                                 !- Year Escalation 6
  0.9512,                                 !- Year Escalation 7
  0.9645,                                 !- Year Escalation 8
  0.9856,                                 !- Year Escalation 9
  1.0067,                                 !- Year Escalation 10
  1.0222,                                 !- Year Escalation 11
  1.0410,                                 !- Year Escalation 12
  1.0610,                                 !- Year Escalation 13
  1.0787,                                 !- Year Escalation 14
  1.0942,                                 !- Year Escalation 15
  1.1098,                                 !- Year Escalation 16
  1.1220,                                 !- Year Escalation 17
  1.1308,                                 !- Year Escalation 18
  1.1386,                                 !- Year Escalation 19
  1.1486,                                 !- Year Escalation 20
  1.1619,                                 !- Year Escalation 21
  1.1763,                                 !- Year Escalation 22
  1.1918,                                 !- Year Escalation 23
  1.2118,                                 !- Year Escalation 24
  1.2284,                                 !- Year Escalation 25
  1.2439,                                 !- Year Escalation 26
  1.2605,                                 !- Year Escalation 27
  1.2772,                                 !- Year Escalation 28
  1.2938,                                 !- Year Escalation 29
  1.3115;                                 !- Year Escalation 30

LifeCycleCost:UsePriceEscalation,
  U.S. Avg  Commercial-Coal,              !- Name
  Coal,                                   !- Resource
  2011,                                   !- Escalation Start Year
  January,                                !- Escalation Start Month
  0.9970,                                 !- Year Escalation 1
  1.0089,                                 !- Year Escalation 2
  1.0089,                                 !- Year Escalation 3
  0.9941,                                 !- Year Escalation 4
  0.9941,                                 !- Year Escalation 5
  1.0000,                                 !- Year Escalation 6
  1.0030,                                 !- Year Escalation 7
  1.0059,                                 !- Year Escalation 8
  1.0089,                                 !- Year Escalation 9
  1.0119,                                 !- Year Escalation 10
  1.0148,                                 !- Year Escalation 11
  1.0178,                                 !- Year Escalation 12
  1.0208,                                 !- Year Escalation 13
  1.0267,                                 !- Year Escalation 14
  1.0297,                                 !- Year Escalation 15
  1.0356,                                 !- Year Escalation 16
  1.0415,                                 !- Year Escalation 17
  1.0534,                                 !- Year Escalation 18
  1.0564,                                 !- Year Escalation 19
  1.0593,                                 !- Year Escalation 20
  1.0653,                                 !- Year Escalation 21
  1.0712,                                 !- Year Escalation 22
  1.0742,                                 !- Year Escalation 23
  1.0801,                                 !- Year Escalation 24
  1.0831,                                 !- Year Escalation 25
  1.0831,                                 !- Year Escalation 26
  1.0861,                                 !- Year Escalation 27
  1.0890,                                 !- Year Escalation 28
  1.0920,                                 !- Year Escalation 29
  1.0950;                                 !- Year Escalation 30

Building,
  DOE Ref 1980-2004|SmallOffice|SmallOffice, !- Name
  ,                                       !- North Axis {deg}
  City,                                   !- Terrain
  ,                                       !- Loads Convergence Tolerance Value {W}
  ,                                       !- Temperature Convergence Tolerance Value {deltaC}
  ,                                       !- Solar Distribution
  ,                                       !- Maximum Number of Warmup Days
  ;                                       !- Minimum Number of Warmup Days

Zone,
  Zone SmallOffice WholeBuilding - Sm Office A  - Story Ground, !- Name
  -0,                                     !- Direction of Relative North {deg}
  -7.28879374746901,                      !- X Origin {m}
  -7.90719583164601,                      !- Y Origin {m}
  0,                                      !- Z Origin {m}
  ,                                       !- Type
  1,                                      !- Multiplier
  ,                                       !- Ceiling Height {m}
  ,                                       !- Volume {m3}
  ,                                       !- Floor Area {m2}
  ,                                       !- Zone Inside Convection Algorithm
  ,                                       !- Zone Outside Convection Algorithm
  Yes;                                    !- Part of Total Floor Area

BuildingSurface:Detailed,
  Surface 19,                             !- Name
  Floor,                                  !- Surface Type
  ext-slab-mass,                          !- Construction Name
  Zone SmallOffice WholeBuilding - Sm Office A  - Story Ground, !- Zone Name
  Ground,                                 !- Outside Boundary Condition
  ,                                       !- Outside Boundary Condition Object
  NoSun,                                  !- Sun Exposure
  NoWind,                                 !- Wind Exposure
  ,                                       !- View Factor to Ground
  ,                                       !- Number of Vertices
  1.77635683940025e-15, -1.77635683940025e-15, 0, !- X,Y,Z Vertex 1 {m}
  1.77635683940025e-15, 4.572, 0,         !- X,Y,Z Vertex 2 {m}
  14.577587494938, 4.572, 0,              !- X,Y,Z Vertex 3 {m}
  14.577587494938, -1.77635683940025e-15, 0; !- X,Y,Z Vertex 4 {m}

BuildingSurface:Detailed,
  Surface 20,                             !- Name
  Wall,                                   !- Surface Type
  Typical Interior Wall,                  !- Construction Name
  Zone SmallOffice WholeBuilding - Sm Office A  - Story Ground, !- Zone Name
  Surface,                                !- Outside Boundary Condition
  Surface 4,                              !- Outside Boundary Condition Object
  NoSun,                                  !- Sun Exposure
  NoWind,                                 !- Wind Exposure
  ,                                       !- View Factor to Ground
  ,                                       !- Number of Vertices
  1.77635683940025e-15, 4.572, 3.048,     !- X,Y,Z Vertex 1 {m}
  1.77635683940025e-15, 4.572, 0,         !- X,Y,Z Vertex 2 {m}
  1.77635683940025e-15, -1.77635683940025e-15, 0, !- X,Y,Z Vertex 3 {m}
  1.77635683940025e-15, -1.77635683940025e-15, 3.048; !- X,Y,Z Vertex 4 {m}

BuildingSurface:Detailed,
  Surface 21,                             !- Name
  Wall,                                   !- Surface Type
  Typical Interior Wall,                  !- Construction Name
  Zone SmallOffice WholeBuilding - Sm Office A  - Story Ground, !- Zone Name
  Surface,                                !- Outside Boundary Condition
  Surface 29,                             !- Outside Boundary Condition Object
  NoSun,                                  !- Sun Exposure
  NoWind,                                 !- Wind Exposure
  ,                                       !- View Factor to Ground
  ,                                       !- Number of Vertices
  14.577587494938, 4.572, 3.048,          !- X,Y,Z Vertex 1 {m}
  14.577587494938, 4.572, 0,              !- X,Y,Z Vertex 2 {m}
  1.77635683940025e-15, 4.572, 0,         !- X,Y,Z Vertex 3 {m}
  1.77635683940025e-15, 4.572, 3.048;     !- X,Y,Z Vertex 4 {m}

BuildingSurface:Detailed,
  Surface 22,                             !- Name
  Wall,                                   !- Surface Type
  Typical Interior Wall,                  !- Construction Name
  Zone SmallOffice WholeBuilding - Sm Office A  - Story Ground, !- Zone Name
  Surface,                                !- Outside Boundary Condition
  Surface 38,                             !- Outside Boundary Condition Object
  NoSun,                                  !- Sun Exposure
  NoWind,                                 !- Wind Exposure
  ,                                       !- View Factor to Ground
  ,                                       !- Number of Vertices
  14.577587494938, -1.77635683940025e-15, 3.048, !- X,Y,Z Vertex 1 {m}
  14.577587494938, -1.77635683940025e-15, 0, !- X,Y,Z Vertex 2 {m}
  14.577587494938, 4.572, 0,              !- X,Y,Z Vertex 3 {m}
  14.577587494938, 4.572, 3.048;          !- X,Y,Z Vertex 4 {m}

BuildingSurface:Detailed,
  Surface 23,                             !- Name
  Wall,                                   !- Surface Type
  Typical Insulated Exterior Mass Wall,   !- Construction Name
  Zone SmallOffice WholeBuilding - Sm Office A  - Story Ground, !- Zone Name
  Outdoors,                               !- Outside Boundary Condition
  ,                                       !- Outside Boundary Condition Object
  SunExposed,                             !- Sun Exposure
  WindExposed,                            !- Wind Exposure
  ,                                       !- View Factor to Ground
  ,                                       !- Number of Vertices
  1.77635683940025e-15, -1.77635683940025e-15, 3.048, !- X,Y,Z Vertex 1 {m}
  1.77635683940025e-15, -1.77635683940025e-15, 0, !- X,Y,Z Vertex 2 {m}
  14.577587494938, -1.77635683940025e-15, 0, !- X,Y,Z Vertex 3 {m}
  14.577587494938, -1.77635683940025e-15, 3.048; !- X,Y,Z Vertex 4 {m}

FenestrationSurface:Detailed,
  Sub Surface 9,                          !- Name
  Window,                                 !- Surface Type
  U 0.72 SHGC 0.39 Simple Glazing Window U-0.72 SHGC 0.39, !- Construction Name
  Surface 23,                             !- Building Surface Name
  ,                                       !- Outside Boundary Condition Object
  ,                                       !- View Factor to Ground
  ,                                       !- Frame and Divider Name
  ,                                       !- Multiplier
  ,                                       !- Number of Vertices
  0.0254000000000018, -1.77635683940025e-15, 1.22079882286487, !- X,Y,Z Vertex 1 {m}
  0.0254000000000018, -1.77635683940025e-15, 0.762, !- X,Y,Z Vertex 2 {m}
  14.552187494938, -1.77635683940025e-15, 0.762, !- X,Y,Z Vertex 3 {m}
  14.552187494938, -1.77635683940025e-15, 1.22079882286487; !- X,Y,Z Vertex 4 {m}

BuildingSurface:Detailed,
  Surface 24,                             !- Name
  Roof,                                   !- Surface Type
  Typical IEAD Roof R-11.36,              !- Construction Name
  Zone SmallOffice WholeBuilding - Sm Office A  - Story Ground, !- Zone Name
  Outdoors,                               !- Outside Boundary Condition
  ,                                       !- Outside Boundary Condition Object
  SunExposed,                             !- Sun Exposure
  WindExposed,                            !- Wind Exposure
  ,                                       !- View Factor to Ground
  ,                                       !- Number of Vertices
  14.577587494938, -1.77635683940025e-15, 3.048, !- X,Y,Z Vertex 1 {m}
  14.577587494938, 4.572, 3.048,          !- X,Y,Z Vertex 2 {m}
  1.77635683940025e-15, 4.572, 3.048,     !- X,Y,Z Vertex 3 {m}
  1.77635683940025e-15, -1.77635683940025e-15, 3.048; !- X,Y,Z Vertex 4 {m}

ZoneInfiltration:DesignFlowRate,
  SmallOffice WholeBuilding - Sm Office A  - Story Ground Infiltration, !- Name
  Zone SmallOffice WholeBuilding - Sm Office A  - Story Ground, !- Zone or ZoneList Name
  Always On Discrete,                     !- Schedule Name
  Flow/ExteriorArea,                      !- Design Flow Rate Calculation Method
  ,                                       !- Design Flow Rate {m3/s}
  ,                                       !- Flow per Zone Floor Area {m3/s-m2}
  0.0004100928405,                        !- Flow per Exterior Surface Area {m3/s-m2}
  ,                                       !- Air Changes per Hour {1/hr}
  1,                                      !- Constant Term Coefficient
  0,                                      !- Temperature Term Coefficient
  0,                                      !- Velocity Term Coefficient
  0;                                      !- Velocity Squared Term Coefficient

ZoneControl:Thermostat,
  Zone SmallOffice WholeBuilding - Sm Office A  - Story Ground Thermostat, !- Name
  Zone SmallOffice WholeBuilding - Sm Office A  - Story Ground, !- Zone or ZoneList Name
  Zone SmallOffice WholeBuilding - Sm Office A  - Story Ground Thermostat Schedule, !- Control Type Schedule Name
  ThermostatSetpoint:DualSetpoint,        !- Control 1 Object Type
  SmallOffice WholeBuilding - Sm Office - DOE Ref 1980-2004 Thermostat 7, !- Control 1 Name
  ,                                       !- Control 2 Object Type
  ,                                       !- Control 2 Name
  ,                                       !- Control 3 Object Type
  ,                                       !- Control 3 Name
  ,                                       !- Control 4 Object Type
  ,                                       !- Control 4 Name
  0;                                      !- Temperature Difference Between Cutout And Setpoint {deltaC}

Schedule:Compact,
  Zone SmallOffice WholeBuilding - Sm Office A  - Story Ground Thermostat Schedule, !- Name
  Zone SmallOffice WholeBuilding - Sm Office A  - Story Ground Thermostat Schedule Type Limits, !- Schedule Type Limits Name
  Through: 12/31,                         !- Field 1
  For: AllDays,                           !- Field 2
  Until: 24:00,                           !- Field 3
  4;                                      !- Field 4

ScheduleTypeLimits,
  Zone SmallOffice WholeBuilding - Sm Office A  - Story Ground Thermostat Schedule Type Limits, !- Name
  0,                                      !- Lower Limit Value {BasedOnField A3}
  4,                                      !- Upper Limit Value {BasedOnField A3}
  DISCRETE;                               !- Numeric Type

ThermostatSetpoint:DualSetpoint,
  SmallOffice WholeBuilding - Sm Office - DOE Ref 1980-2004 Thermostat 7, !- Name
  Small Office HtgSetp,                   !- Heating Setpoint Temperature Schedule Name
  Small Office ClgSetp;                   !- Cooling Setpoint Temperature Schedule Name

ScheduleTypeLimits,
  Temperature,                            !- Name
  ,                                       !- Lower Limit Value {BasedOnField A3}
  ,                                       !- Upper Limit Value {BasedOnField A3}
  Continuous,                             !- Numeric Type
  temperature;                            !- Unit Type

Schedule:Day:Interval,
  Small Office HtgSetp Default,           !- Name
  Temperature,                            !- Schedule Type Limits Name
  No,                                     !- Interpolate to Timestep
  06:00,                                  !- Time 1 {hh:mm}
  15.6,                                   !- Value Until Time 1
  22:00,                                  !- Time 2 {hh:mm}
  21,                                     !- Value Until Time 2
  24:00,                                  !- Time 3 {hh:mm}
  15.6;                                   !- Value Until Time 3

Schedule:Day:Interval,
  Small Office HtgSetp Sat Day,           !- Name
  Temperature,                            !- Schedule Type Limits Name
  No,                                     !- Interpolate to Timestep
  06:00,                                  !- Time 1 {hh:mm}
  15.6,                                   !- Value Until Time 1
  18:00,                                  !- Time 2 {hh:mm}
  21,                                     !- Value Until Time 2
  24:00,                                  !- Time 3 {hh:mm}
  15.6;                                   !- Value Until Time 3

Schedule:Day:Interval,
  Small Office HtgSetp SmrDsn|Sun Day,    !- Name
  Temperature,                            !- Schedule Type Limits Name
  No,                                     !- Interpolate to Timestep
  24:00,                                  !- Time 1 {hh:mm}
  15.6;                                   !- Value Until Time 1

Schedule:Week:Daily,
  Small Office HtgSetp Week Rule - Jan1-Jan2, !- Name
  Small Office HtgSetp Default,           !- Sunday Schedule:Day Name
  Small Office HtgSetp Default,           !- Monday Schedule:Day Name
  Small Office HtgSetp Default,           !- Tuesday Schedule:Day Name
  Small Office HtgSetp Default,           !- Wednesday Schedule:Day Name
  Small Office HtgSetp Default,           !- Thursday Schedule:Day Name
  Small Office HtgSetp Default,           !- Friday Schedule:Day Name
  Small Office HtgSetp Sat Day,           !- Saturday Schedule:Day Name
  Small Office HtgSetp Default,           !- Holiday Schedule:Day Name
  Small Office HtgSetp Summer Design Day, !- SummerDesignDay Schedule:Day Name
  Small Office HtgSetp Winter Design Day, !- WinterDesignDay Schedule:Day Name
  Small Office HtgSetp Default,           !- CustomDay1 Schedule:Day Name
  Small Office HtgSetp Default;           !- CustomDay2 Schedule:Day Name

Schedule:Week:Daily,
  Small Office HtgSetp Week Rule - Jan3-Dec31, !- Name
  Small Office HtgSetp SmrDsn|Sun Day,    !- Sunday Schedule:Day Name
  Small Office HtgSetp Default,           !- Monday Schedule:Day Name
  Small Office HtgSetp Default,           !- Tuesday Schedule:Day Name
  Small Office HtgSetp Default,           !- Wednesday Schedule:Day Name
  Small Office HtgSetp Default,           !- Thursday Schedule:Day Name
  Small Office HtgSetp Default,           !- Friday Schedule:Day Name
  Small Office HtgSetp Sat Day,           !- Saturday Schedule:Day Name
  Small Office HtgSetp Default,           !- Holiday Schedule:Day Name
  Small Office HtgSetp Summer Design Day, !- SummerDesignDay Schedule:Day Name
  Small Office HtgSetp Winter Design Day, !- WinterDesignDay Schedule:Day Name
  Small Office HtgSetp Default,           !- CustomDay1 Schedule:Day Name
  Small Office HtgSetp Default;           !- CustomDay2 Schedule:Day Name

Schedule:Year,
  Small Office HtgSetp,                   !- Name
  Temperature,                            !- Schedule Type Limits Name
  Small Office HtgSetp Week Rule - Jan1-Jan2, !- Schedule:Week Name 1
  1,                                      !- Start Month 1
  1,                                      !- Start Day 1
  1,                                      !- End Month 1
  2,                                      !- End Day 1
  Small Office HtgSetp Week Rule - Jan3-Dec31, !- Schedule:Week Name 2
  1,                                      !- Start Month 2
  3,                                      !- Start Day 2
  12,                                     !- End Month 2
  31;                                     !- End Day 2

Schedule:Day:Interval,
  Small Office HtgSetp Summer Design Day, !- Name
  Temperature,                            !- Schedule Type Limits Name
  No,                                     !- Interpolate to Timestep
  24:00,                                  !- Time 1 {hh:mm}
  15.6;                                   !- Value Until Time 1

Schedule:Day:Interval,
  Small Office HtgSetp Winter Design Day, !- Name
  Temperature,                            !- Schedule Type Limits Name
  No,                                     !- Interpolate to Timestep
  24:00,                                  !- Time 1 {hh:mm}
  21;                                     !- Value Until Time 1

Schedule:Day:Interval,
  Small Office ClgSetp Default,           !- Name
  Temperature,                            !- Schedule Type Limits Name
  No,                                     !- Interpolate to Timestep
  06:00,                                  !- Time 1 {hh:mm}
  26.7,                                   !- Value Until Time 1
  22:00,                                  !- Time 2 {hh:mm}
  24,                                     !- Value Until Time 2
  24:00,                                  !- Time 3 {hh:mm}
  26.7;                                   !- Value Until Time 3

Schedule:Day:Interval,
  Small Office ClgSetp Sat Day,           !- Name
  Temperature,                            !- Schedule Type Limits Name
  No,                                     !- Interpolate to Timestep
  06:00,                                  !- Time 1 {hh:mm}
  26.7,                                   !- Value Until Time 1
  18:00,                                  !- Time 2 {hh:mm}
  24,                                     !- Value Until Time 2
  24:00,                                  !- Time 3 {hh:mm}
  26.7;                                   !- Value Until Time 3

Schedule:Day:Interval,
  Small Office ClgSetp WntrDsn|Sun Day,   !- Name
  Temperature,                            !- Schedule Type Limits Name
  No,                                     !- Interpolate to Timestep
  24:00,                                  !- Time 1 {hh:mm}
  26.7;                                   !- Value Until Time 1

Schedule:Week:Daily,
  Small Office ClgSetp Week Rule - Jan1-Jan2, !- Name
  Small Office ClgSetp Default,           !- Sunday Schedule:Day Name
  Small Office ClgSetp Default,           !- Monday Schedule:Day Name
  Small Office ClgSetp Default,           !- Tuesday Schedule:Day Name
  Small Office ClgSetp Default,           !- Wednesday Schedule:Day Name