
OS:Version,
  {17deeb93-7acb-4765-9668-5d048d8d307f}, !- Handle
  3.1.0;                                  !- Version Identifier

OS:WeatherFile,
  {e2582bfa-bda3-4942-afaf-1700f0579507}, !- Handle
  Climate Zone 3,                         !- City
  CA,                                     !- State Province Region
  USA,                                    !- Country
  CTZRV2,                                 !- Data Source
  724930,                                 !- WMO Number
  28.51768858,                            !- Latitude {deg}
  -81.3790388,                            !- Longitude {deg}
  -8,                                     !- Time Zone {hr}
  2,                                      !- Elevation {m}
  /Users/llin/Documents/repo/edv-experiment-1/data/weather/temporary/temporary.epw, !- Url
  ;                                       !- Checksum

OS:Site,
  {8c3e9abd-63a2-4ed4-aeda-869a55e855d3}, !- Handle
  Climate Zone 3_CA_USA,                  !- Name
  28.51768858,                            !- Latitude {deg}
  -81.3790388,                            !- Longitude {deg}
  -8,                                     !- Time Zone {hr}
  2,                                      !- Elevation {m}
  City;                                   !- Terrain

OS:Site:WaterMainsTemperature,
  {ec5c481f-3ff4-44b4-9dcf-50454d120d40}, !- Handle
  Correlation,                            !- Calculation Method
  ,                                       !- Temperature Schedule Name
  14.1416666666667,                       !- Annual Average Outdoor Air Temperature {C}
  7.8;                                    !- Maximum Difference In Monthly Average Outdoor Air Temperatures {deltaC}

OS:ClimateZones,
  {c1b45061-68c9-408a-9d53-47a3418496c3}, !- Handle
  ASHRAE,                                 !- Climate Zone Institution Name 1
  ANSI/ASHRAE Standard 169,               !- Climate Zone Document Name 1
  2006,                                   !- Climate Zone Document Year 1
  3C;                                     !- Climate Zone Value 1

OS:SizingPeriod:DesignDay,
  {dd86660b-24f2-4740-92cd-13b03ab2c5a4}, !- Handle
  Climate Zone 3 Ann Clg .4% Condns WB=>MDB, !- Name
  25.5,                                   !- Maximum Dry-Bulb Temperature {C}
  7.4,                                    !- Daily Dry-Bulb Temperature Range {deltaC}
  19.8,                                   !- Humidity Indicating Conditions at Maximum Dry-Bulb
  101301,                                 !- Barometric Pressure {Pa}
  4.9,                                    !- Wind Speed {m/s}
  290,                                    !- Wind Direction {deg}
  0,                                      !- Sky Clearness
  0,                                      !- Rain Indicator
  0,                                      !- Snow Indicator
  21,                                     !- Day of Month
  8,                                      !- Month
  SummerDesignDay,                        !- Day Type
  0,                                      !- Daylight Saving Time Indicator
  Wetbulb,                                !- Humidity Indicating Type
  ,                                       !- Humidity Indicating Day Schedule Name
  DefaultMultipliers,                     !- Dry-Bulb Temperature Range Modifier Type
  ,                                       !- Dry-Bulb Temperature Range Modifier Schedule Name
  ASHRAETau,                              !- Solar Model Indicator
  ,                                       !- Beam Solar Day Schedule Name
  ,                                       !- Diffuse Solar Day Schedule Name
  0.367,                                  !- ASHRAE Taub {dimensionless}
  2.428;                                  !- ASHRAE Taud {dimensionless}

OS:SizingPeriod:DesignDay,
  {6bb26f4c-0e35-42be-9b3e-5e8cbd7d5a71}, !- Handle
  Climate Zone 3 Ann Clg .4% Condns DB=>MWB, !- Name
  27.7,                                   !- Maximum Dry-Bulb Temperature {C}
  7.4,                                    !- Daily Dry-Bulb Temperature Range {deltaC}
  18.3,                                   !- Humidity Indicating Conditions at Maximum Dry-Bulb
  101301,                                 !- Barometric Pressure {Pa}
  4.9,                                    !- Wind Speed {m/s}
  290,                                    !- Wind Direction {deg}
  0,                                      !- Sky Clearness
  0,                                      !- Rain Indicator
  0,                                      !- Snow Indicator
  21,                                     !- Day of Month
  8,                                      !- Month
  SummerDesignDay,                        !- Day Type
  0,                                      !- Daylight Saving Time Indicator
  Wetbulb,                                !- Humidity Indicating Type
  ,                                       !- Humidity Indicating Day Schedule Name
  DefaultMultipliers,                     !- Dry-Bulb Temperature Range Modifier Type
  ,                                       !- Dry-Bulb Temperature Range Modifier Schedule Name
  ASHRAETau,                              !- Solar Model Indicator
  ,                                       !- Beam Solar Day Schedule Name
  ,                                       !- Diffuse Solar Day Schedule Name
  0.367,                                  !- ASHRAE Taub {dimensionless}
  2.428;                                  !- ASHRAE Taud {dimensionless}

OS:SizingPeriod:DesignDay,
  {fd3895ca-513a-4c01-9be7-e81ce89b2074}, !- Handle
  Climate Zone 3 Ann Htg 99.6% Condns DB, !- Name
  2.9,                                    !- Maximum Dry-Bulb Temperature {C}
  0,                                      !- Daily Dry-Bulb Temperature Range {deltaC}
  2.9,                                    !- Humidity Indicating Conditions at Maximum Dry-Bulb
  101301,                                 !- Barometric Pressure {Pa}
  2.2,                                    !- Wind Speed {m/s}
  50,                                     !- Wind Direction {deg}
  0,                                      !- Sky Clearness
  0,                                      !- Rain Indicator
  0,                                      !- Snow Indicator
  21,                                     !- Day of Month
  1,                                      !- Month
  WinterDesignDay,                        !- Day Type
  0,                                      !- Daylight Saving Time Indicator
  Wetbulb,                                !- Humidity Indicating Type
  ,                                       !- Humidity Indicating Day Schedule Name
  DefaultMultipliers,                     !- Dry-Bulb Temperature Range Modifier Type
  ,                                       !- Dry-Bulb Temperature Range Modifier Schedule Name
  ASHRAEClearSky;                         !- Solar Model Indicator

OS:YearDescription,
  {3ee432da-bace-48c0-af85-7ba558a5c666}, !- Handle
  2021,                                   !- Calendar Year
  ,                                       !- Day of Week for Start Day
  ;                                       !- Is Leap Year

OS:SpaceType,
  {01eced26-2c81-4136-9ed8-4668c145135f}, !- Handle
  SmallOffice WholeBuilding - Sm Office - DOE Ref 1980-2004, !- Name
  ,                                       !- Default Construction Set Name
  {d6ffaac8-0805-4f59-afba-e31b58983cdb}, !- Default Schedule Set Name
  ,                                       !- Group Rendering Name
  {5942d99e-efc9-4cd4-ad86-a821f3f6f4c8}, !- Design Specification Outdoor Air Object Name
  ,                                       !- Standards Template
  Office,                                 !- Standards Building Type
  WholeBuilding - Sm Office;              !- Standards Space Type

OS:Building,
  {4f08a838-64a3-4fc7-a751-6ff4282ae9b5}, !- Handle
  DOE Ref 1980-2004|SmallOffice|SmallOffice, !- Name
  ,                                       !- Building Sector Type
  ,                                       !- North Axis {deg}
  ,                                       !- Nominal Floor to Floor Height {m}
  ,                                       !- Space Type Name
  {aa77feac-fab3-4bb4-a2bd-8cc5a1b94018}, !- Default Construction Set Name
  {07db07b8-6d29-4580-81ba-073a40de4ef8}, !- Default Schedule Set Name
  ,                                       !- Standards Number of Stories
  ,                                       !- Standards Number of Above Ground Stories
  ,                                       !- Standards Template
  Office;                                 !- Standards Building Type

OS:BuildingStory,
  {8b30073a-cabe-4751-81e4-c6be735ff670}, !- Handle
  Story Ground,                           !- Name
  0,                                      !- Nominal Z Coordinate {m}
  3.048,                                  !- Nominal Floor to Floor Height {m}
  ,                                       !- Default Construction Set Name
  ,                                       !- Default Schedule Set Name
  ;                                       !- Group Rendering Name

OS:Space,
  {231d4d1f-73de-46e0-8262-f15a63f528e2}, !- Handle
  SmallOffice WholeBuilding - Sm Office A end_a - Story Ground, !- Name
  {01eced26-2c81-4136-9ed8-4668c145135f}, !- Space Type Name
  ,                                       !- Default Construction Set Name
  ,                                       !- Default Schedule Set Name
  -0,                                     !- Direction of Relative North {deg}
  -11.860793747469,                       !- X Origin {m}
  -7.90719583164601,                      !- Y Origin {m}
  0,                                      !- Z Origin {m}
  {8b30073a-cabe-4751-81e4-c6be735ff670}, !- Building Story Name
  {401a1392-50ea-4424-8d60-0587ad267eca}; !- Thermal Zone Name

OS:Surface,
  {1fc088dc-03f1-4874-afdf-e167bc7bb40b}, !- Handle
  Surface 1,                              !- Name
  Floor,                                  !- Surface Type
  ,                                       !- Construction Name
  {231d4d1f-73de-46e0-8262-f15a63f528e2}, !- Space Name
  Ground,                                 !- Outside Boundary Condition
  ,                                       !- Outside Boundary Condition Object
  NoSun,                                  !- Sun Exposure
  NoWind,                                 !- Wind Exposure
  ,                                       !- View Factor to Ground
  ,                                       !- Number of Vertices
  1.24344978758018e-14, -1.77635683940025e-15, 0, !- X,Y,Z Vertex 1 {m}
  1.24344978758018e-14, 4.572, 0,         !- X,Y,Z Vertex 2 {m}
  4.572, 4.572, 0,                        !- X,Y,Z Vertex 3 {m}
  4.572, -1.77635683940025e-15, 0;        !- X,Y,Z Vertex 4 {m}

OS:Surface,
  {0204bf8d-995c-43f5-a4ce-ad05d10e29be}, !- Handle
  Surface 2,                              !- Name
  Wall,                                   !- Surface Type
  ,                                       !- Construction Name
  {231d4d1f-73de-46e0-8262-f15a63f528e2}, !- Space Name
  Outdoors,                               !- Outside Boundary Condition
  ,                                       !- Outside Boundary Condition Object
  SunExposed,                             !- Sun Exposure
  WindExposed,                            !- Wind Exposure
  ,                                       !- View Factor to Ground
  ,                                       !- Number of Vertices
  1.24344978758018e-14, 4.572, 3.048,     !- X,Y,Z Vertex 1 {m}
  1.24344978758018e-14, 4.572, 0,         !- X,Y,Z Vertex 2 {m}
  1.24344978758018e-14, -1.77635683940025e-15, 0, !- X,Y,Z Vertex 3 {m}
  1.24344978758018e-14, -1.77635683940025e-15, 3.048; !- X,Y,Z Vertex 4 {m}

OS:Surface,
  {f872c8a4-010c-473e-92ed-dcc11a8246fd}, !- Handle
  Surface 3,                              !- Name
  Wall,                                   !- Surface Type
  ,                                       !- Construction Name
  {231d4d1f-73de-46e0-8262-f15a63f528e2}, !- Space Name
  Surface,                                !- Outside Boundary Condition
  {cc1762fd-dfdb-4d7c-b879-a38aefbf2179}, !- Outside Boundary Condition Object
  NoSun,                                  !- Sun Exposure
  NoWind,                                 !- Wind Exposure
  ,                                       !- View Factor to Ground
  ,                                       !- Number of Vertices
  4.572, 4.572, 3.048,                    !- X,Y,Z Vertex 1 {m}
  4.572, 4.572, 0,                        !- X,Y,Z Vertex 2 {m}
  1.24344978758018e-14, 4.572, 0,         !- X,Y,Z Vertex 3 {m}
  1.24344978758018e-14, 4.572, 3.048;     !- X,Y,Z Vertex 4 {m}

OS:Surface,
  {186f2728-d0f9-4d55-a99c-1203d02f7537}, !- Handle
  Surface 4,                              !- Name
  Wall,                                   !- Surface Type
  ,                                       !- Construction Name
  {231d4d1f-73de-46e0-8262-f15a63f528e2}, !- Space Name
  Surface,                                !- Outside Boundary Condition
  {0015ebbc-7ba4-41d9-a7f3-164f4d2d5fa0}, !- Outside Boundary Condition Object
  NoSun,                                  !- Sun Exposure
  NoWind,                                 !- Wind Exposure
  ,                                       !- View Factor to Ground
  ,                                       !- Number of Vertices
  4.572, -1.77635683940025e-15, 3.048,    !- X,Y,Z Vertex 1 {m}
  4.572, -1.77635683940025e-15, 0,        !- X,Y,Z Vertex 2 {m}
  4.572, 4.572, 0,                        !- X,Y,Z Vertex 3 {m}
  4.572, 4.572, 3.048;                    !- X,Y,Z Vertex 4 {m}

OS:Surface,
  {bc0d2a3f-6001-4839-8caa-b4f0bd8deadc}, !- Handle
  Surface 5,                              !- Name
  Wall,                                   !- Surface Type
  ,                                       !- Construction Name
  {231d4d1f-73de-46e0-8262-f15a63f528e2}, !- Space Name
  Outdoors,                               !- Outside Boundary Condition
  ,                                       !- Outside Boundary Condition Object
  SunExposed,                             !- Sun Exposure
  WindExposed,                            !- Wind Exposure
  ,                                       !- View Factor to Ground
  ,                                       !- Number of Vertices
  1.24344978758018e-14, -1.77635683940025e-15, 3.048, !- X,Y,Z Vertex 1 {m}
  1.24344978758018e-14, -1.77635683940025e-15, 0, !- X,Y,Z Vertex 2 {m}
  4.572, -1.77635683940025e-15, 0,        !- X,Y,Z Vertex 3 {m}
  4.572, -1.77635683940025e-15, 3.048;    !- X,Y,Z Vertex 4 {m}

OS:Surface,
  {32b68e74-ceb4-4ee7-a18a-7a56d619e7ab}, !- Handle
  Surface 6,                              !- Name
  RoofCeiling,                            !- Surface Type
  ,                                       !- Construction Name
  {231d4d1f-73de-46e0-8262-f15a63f528e2}, !- Space Name
  Outdoors,                               !- Outside Boundary Condition
  ,                                       !- Outside Boundary Condition Object
  SunExposed,                             !- Sun Exposure
  WindExposed,                            !- Wind Exposure
  ,                                       !- View Factor to Ground
  ,                                       !- Number of Vertices
  4.572, -1.77635683940025e-15, 3.048,    !- X,Y,Z Vertex 1 {m}
  4.572, 4.572, 3.048,                    !- X,Y,Z Vertex 2 {m}
  1.24344978758018e-14, 4.572, 3.048,     !- X,Y,Z Vertex 3 {m}
  1.24344978758018e-14, -1.77635683940025e-15, 3.048; !- X,Y,Z Vertex 4 {m}

OS:ThermalZone,
  {401a1392-50ea-4424-8d60-0587ad267eca}, !- Handle
  Zone SmallOffice WholeBuilding - Sm Office A end_a - Story Ground, !- Name
  1,                                      !- Multiplier
  ,                                       !- Ceiling Height {m}
  ,                                       !- Volume {m3}
  ,                                       !- Floor Area {m2}
  ,                                       !- Zone Inside Convection Algorithm
  ,                                       !- Zone Outside Convection Algorithm
  ,                                       !- Zone Conditioning Equipment List Name
  {4126b8ac-2e5a-4f0a-854d-538413861004}, !- Zone Air Inlet Port List
  {a287c0ba-695b-4a45-98f0-fe00d16e8cc8}, !- Zone Air Exhaust Port List
  {228475a4-0a35-477d-b291-1b8973500948}, !- Zone Air Node Name
  {c156e79e-8948-4ffa-bfe1-bba60fcfcfb1}, !- Zone Return Air Port List
  ,                                       !- Primary Daylighting Control Name
  ,                                       !- Fraction of Zone Controlled by Primary Daylighting Control
  ,                                       !- Secondary Daylighting Control Name
  ,                                       !- Fraction of Zone Controlled by Secondary Daylighting Control
  ,                                       !- Illuminance Map Name
  ,                                       !- Group Rendering Name
  {8fbd0e17-dd3d-4025-a58c-3444ac9a7aa3}, !- Thermostat Name
  No;                                     !- Use Ideal Air Loads

OS:Node,
  {24b6e32b-c4a0-4cab-a918-1c4e35e6687f}, !- Handle
  Zone SmallOffice WholeBuilding - Sm Office A end_a - Story Ground Zone Air Node, !- Name
  {228475a4-0a35-477d-b291-1b8973500948}, !- Inlet Port
  ;                                       !- Outlet Port

OS:Connection,
  {228475a4-0a35-477d-b291-1b8973500948}, !- Handle
  {c074d15a-1ac2-42b5-a7ee-e8dfecaf056c}, !- Name
  {401a1392-50ea-4424-8d60-0587ad267eca}, !- Source Object
  11,                                     !- Outlet Port
  {24b6e32b-c4a0-4cab-a918-1c4e35e6687f}, !- Target Object
  2;                                      !- Inlet Port

OS:PortList,
  {4126b8ac-2e5a-4f0a-854d-538413861004}, !- Handle
  {19a635ea-adf5-461f-851c-10abf6eb6cb9}, !- Name
  {401a1392-50ea-4424-8d60-0587ad267eca}, !- HVAC Component
  {276ad423-20d5-4707-84d2-7418e2c26a69}; !- Port 1

OS:PortList,
  {a287c0ba-695b-4a45-98f0-fe00d16e8cc8}, !- Handle
  {afe01348-6f50-4976-bd6f-827f7a7623ed}, !- Name
  {401a1392-50ea-4424-8d60-0587ad267eca}; !- HVAC Component

OS:PortList,
  {c156e79e-8948-4ffa-bfe1-bba60fcfcfb1}, !- Handle
  {10862e75-63c1-48f3-987e-4324ab3f2beb}, !- Name
  {401a1392-50ea-4424-8d60-0587ad267eca}, !- HVAC Component
  {f7d3c665-cd17-427c-bd72-5e734b35d514}; !- Port 1

OS:Sizing:Zone,
  {bd01e1d8-6c14-4316-97fb-7d6a390a73cc}, !- Handle
  {401a1392-50ea-4424-8d60-0587ad267eca}, !- Zone or ZoneList Name
  SupplyAirTemperature,                   !- Zone Cooling Design Supply Air Temperature Input Method
  12.7777777777778,                       !- Zone Cooling Design Supply Air Temperature {C}
  11.11,                                  !- Zone Cooling Design Supply Air Temperature Difference {deltaC}
  SupplyAirTemperature,                   !- Zone Heating Design Supply Air Temperature Input Method
  50.0000000000001,                       !- Zone Heating Design Supply Air Temperature {C}
  11.11,                                  !- Zone Heating Design Supply Air Temperature Difference {deltaC}
  0.0085,                                 !- Zone Cooling Design Supply Air Humidity Ratio {kg-H2O/kg-air}
  0.008,                                  !- Zone Heating Design Supply Air Humidity Ratio {kg-H2O/kg-air}
  ,                                       !- Zone Heating Sizing Factor
  ,                                       !- Zone Cooling Sizing Factor
  DesignDay,                              !- Cooling Design Air Flow Method
  ,                                       !- Cooling Design Air Flow Rate {m3/s}
  ,                                       !- Cooling Minimum Air Flow per Zone Floor Area {m3/s-m2}
  ,                                       !- Cooling Minimum Air Flow {m3/s}
  ,                                       !- Cooling Minimum Air Flow Fraction
  DesignDay,                              !- Heating Design Air Flow Method
  ,                                       !- Heating Design Air Flow Rate {m3/s}
  ,                                       !- Heating Maximum Air Flow per Zone Floor Area {m3/s-m2}
  ,                                       !- Heating Maximum Air Flow {m3/s}
  ,                                       !- Heating Maximum Air Flow Fraction
  No,                                     !- Account for Dedicated Outdoor Air System
  NeutralSupplyAir,                       !- Dedicated Outdoor Air System Control Strategy
  autosize,                               !- Dedicated Outdoor Air Low Setpoint Temperature for Design {C}
  autosize;                               !- Dedicated Outdoor Air High Setpoint Temperature for Design {C}

OS:ZoneHVAC:EquipmentList,
  {81fa72de-7d26-49b1-939b-d48b8e326632}, !- Handle
  Zone SmallOffice WholeBuilding - Sm Office A end_a - Story Ground Zone HVAC Equipment List, !- Name
  {401a1392-50ea-4424-8d60-0587ad267eca}, !- Thermal Zone
  ,                                       !- Load Distribution Scheme
  {9f193d90-17a2-43d2-93ba-4ecd69b036a7}, !- Zone Equipment 1
  1,                                      !- Zone Equipment Cooling Sequence 1
  1,                                      !- Zone Equipment Heating or No-Load Sequence 1
  ,                                       !- Zone Equipment Sequential Cooling Fraction Schedule Name 1
  ;                                       !- Zone Equipment Sequential Heating Fraction Schedule Name 1

OS:Space,
  {5cf81ae8-a190-4f7f-ba8a-6d039ae6e58d}, !- Handle
  SmallOffice WholeBuilding - Sm Office B end_a - Story Ground, !- Name
  {01eced26-2c81-4136-9ed8-4668c145135f}, !- Space Type Name
  ,                                       !- Default Construction Set Name
  ,                                       !- Default Schedule Set Name
  -0,                                     !- Direction of Relative North {deg}
  -11.860793747469,                       !- X Origin {m}
  -3.33519583164601,                      !- Y Origin {m}
  0,                                      !- Z Origin {m}
  {8b30073a-cabe-4751-81e4-c6be735ff670}, !- Building Story Name
  {a10b6224-37d5-4654-8f3c-3d7442b900ee}; !- Thermal Zone Name

OS:Surface,
  {122c1d3c-29b3-45a0-8d14-03e10f51f611}, !- Handle
  Surface 7,                              !- Name
  Floor,                                  !- Surface Type
  ,                                       !- Construction Name
  {5cf81ae8-a190-4f7f-ba8a-6d039ae6e58d}, !- Space Name
  Ground,                                 !- Outside Boundary Condition
  ,                                       !- Outside Boundary Condition Object
  NoSun,                                  !- Sun Exposure
  NoWind,                                 !- Wind Exposure
  ,                                       !- View Factor to Ground
  ,                                       !- Number of Vertices
  1.24344978758018e-14, -2.22044604925031e-15, 0, !- X,Y,Z Vertex 1 {m}
  1.24344978758018e-14, 6.67039166329202, 0, !- X,Y,Z Vertex 2 {m}
  4.572, 6.67039166329202, 0,             !- X,Y,Z Vertex 3 {m}
  4.572, -2.22044604925031e-15, 0;        !- X,Y,Z Vertex 4 {m}

OS:Surface,
  {625dc00c-8081-4d5f-80a3-04c237653779}, !- Handle
  Surface 8,                              !- Name
  Wall,                                   !- Surface Type
  ,                                       !- Construction Name
  {5cf81ae8-a190-4f7f-ba8a-6d039ae6e58d}, !- Space Name
  Outdoors,                               !- Outside Boundary Condition
  ,                                       !- Outside Boundary Condition Object
  SunExposed,                             !- Sun Exposure
  WindExposed,                            !- Wind Exposure
  ,                                       !- View Factor to Ground
  ,                                       !- Number of Vertices
  1.24344978758018e-14, 6.67039166329202, 3.048, !- X,Y,Z Vertex 1 {m}
  1.24344978758018e-14, 6.67039166329202, 0, !- X,Y,Z Vertex 2 {m}
  1.24344978758018e-14, -2.22044604925031e-15, 0, !- X,Y,Z Vertex 3 {m}
  1.24344978758018e-14, -2.22044604925031e-15, 3.048; !- X,Y,Z Vertex 4 {m}

OS:Surface,
  {35e2b043-6816-438b-84fc-491e03c463a5}, !- Handle
  Surface 9,                              !- Name
  Wall,                                   !- Surface Type
  ,                                       !- Construction Name
  {5cf81ae8-a190-4f7f-ba8a-6d039ae6e58d}, !- Space Name
  Surface,                                !- Outside Boundary Condition
  {a3b3053f-ce40-4726-be5e-2a2730dd65c4}, !- Outside Boundary Condition Object
  NoSun,                                  !- Sun Exposure
  NoWind,                                 !- Wind Exposure
  ,                                       !- View Factor to Ground
  ,                                       !- Number of Vertices
  4.572, 6.67039166329202, 3.048,         !- X,Y,Z Vertex 1 {m}
  4.572, 6.67039166329202, 0,             !- X,Y,Z Vertex 2 {m}
  1.24344978758018e-14, 6.67039166329202, 0, !- X,Y,Z Vertex 3 {m}
  1.24344978758018e-14, 6.67039166329202, 3.048; !- X,Y,Z Vertex 4 {m}

OS:Surface,
  {0bf6468d-bd9a-46ab-8dcb-9b6f2ed79af0}, !- Handle
  Surface 10,                             !- Name
  Wall,                                   !- Surface Type
  ,                                       !- Construction Name
  {5cf81ae8-a190-4f7f-ba8a-6d039ae6e58d}, !- Space Name
  Surface,                                !- Outside Boundary Condition
  {7926d3cf-c43e-43be-8a73-82fa2695c55a}, !- Outside Boundary Condition Object
  NoSun,                                  !- Sun Exposure
  NoWind,                                 !- Wind Exposure
  ,                                       !- View Factor to Ground
  ,                                       !- Number of Vertices
  4.572, -2.22044604925031e-15, 3.048,    !- X,Y,Z Vertex 1 {m}
  4.572, -2.22044604925031e-15, 0,        !- X,Y,Z Vertex 2 {m}
  4.572, 6.67039166329202, 0,             !- X,Y,Z Vertex 3 {m}
  4.572, 6.67039166329202, 3.048;         !- X,Y,Z Vertex 4 {m}

OS:Surface,
  {cc1762fd-dfdb-4d7c-b879-a38aefbf2179}, !- Handle
  Surface 11,                             !- Name
  Wall,                                   !- Surface Type
  ,                                       !- Construction Name
  {5cf81ae8-a190-4f7f-ba8a-6d039ae6e58d}, !- Space Name
  Surface,                                !- Outside Boundary Condition
  {f872c8a4-010c-473e-92ed-dcc11a8246fd}, !- Outside Boundary Condition Object
  NoSun,                                  !- Sun Exposure
  NoWind,                                 !- Wind Exposure
  ,                                       !- View Factor to Ground
  ,                                       !- Number of Vertices
  1.24344978758018e-14, -2.22044604925031e-15, 3.048, !- X,Y,Z Vertex 1 {m}
  1.24344978758018e-14, -2.22044604925031e-15, 0, !- X,Y,Z Vertex 2 {m}
  4.572, -2.22044604925031e-15, 0,        !- X,Y,Z Vertex 3 {m}
  4.572, -2.22044604925031e-15, 3.048;    !- X,Y,Z Vertex 4 {m}

OS:Surface,
  {a1487ba7-1593-4699-aa4b-403ed2872c6d}, !- Handle
  Surface 12,                             !- Name
  RoofCeiling,                            !- Surface Type
  ,                                       !- Construction Name
  {5cf81ae8-a190-4f7f-ba8a-6d039ae6e58d}, !- Space Name
  Outdoors,                               !- Outside Boundary Condition
  ,                                       !- Outside Boundary Condition Object
  SunExposed,                             !- Sun Exposure
  WindExposed,                            !- Wind Exposure
  ,                                       !- View Factor to Ground
  ,                                       !- Number of Vertices
  4.572, -2.22044604925031e-15, 3.048,    !- X,Y,Z Vertex 1 {m}
  4.572, 6.67039166329202, 3.048,         !- X,Y,Z Vertex 2 {m}
  1.24344978758018e-14, 6.67039166329202, 3.048, !- X,Y,Z Vertex 3 {m}
  1.24344978758018e-14, -2.22044604925031e-15, 3.048; !- X,Y,Z Vertex 4 {m}

OS:ThermalZone,
  {a10b6224-37d5-4654-8f3c-3d7442b900ee}, !- Handle
  Zone SmallOffice WholeBuilding - Sm Office B end_a - Story Ground, !- Name
  1,                                      !- Multiplier
  ,                                       !- Ceiling Height {m}
  ,                                       !- Volume {m3}
  ,                                       !- Floor Area {m2}
  ,                                       !- Zone Inside Convection Algorithm
  ,                                       !- Zone Outside Convection Algorithm
  ,                                       !- Zone Conditioning Equipment List Name
  {7711e3f3-a35f-4d66-8855-c1cc31864288}, !- Zone Air Inlet Port List
  {fc77cba7-5034-420d-8303-c019f831deea}, !- Zone Air Exhaust Port List
  {a26fbf07-a212-45a8-91ac-36730a691666}, !- Zone Air Node Name
  {9152b2e3-7eba-4440-ab2a-fc1fe615951c}, !- Zone Return Air Port List
  ,                                       !- Primary Daylighting Control Name
  ,                                       !- Fraction of Zone Controlled by Primary Daylighting Control
  ,                                       !- Secondary Daylighting Control Name
  ,                                       !- Fraction of Zone Controlled by Secondary Daylighting Control
  ,                                       !- Illuminance Map Name
  ,                                       !- Group Rendering Name
  {d6c7af8e-b223-4407-91d2-74c668a1fe1d}, !- Thermostat Name
  No;                                     !- Use Ideal Air Loads

OS:Node,
  {06dc3c06-cbaa-4439-8133-71b7f19225ce}, !- Handle
  Zone SmallOffice WholeBuilding - Sm Office B end_a - Story Ground Zone Air Node, !- Name
  {a26fbf07-a212-45a8-91ac-36730a691666}, !- Inlet Port
  ;                                       !- Outlet Port

OS:Connection,
  {a26fbf07-a212-45a8-91ac-36730a691666}, !- Handle
  {21966648-02ff-40f6-86bb-5c5303b77f0f}, !- Name
  {a10b6224-37d5-4654-8f3c-3d7442b900ee}, !- Source Object
  11,                                     !- Outlet Port
  {06dc3c06-cbaa-4439-8133-71b7f19225ce}, !- Target Object