
OS:Version,
  {6f356334-6487-4b90-b08c-acc8fd7053bf}, !- Handle
  3.1.0;                                  !- Version Identifier

OS:WeatherFile,
  {b541be2b-4ab3-4ace-acc9-17890c39a88e}, !- Handle
  Climate Zone 3,                         !- City
  CA,                                     !- State Province Region
  USA,                                    !- Country
  CTZRV2,                                 !- Data Source
  724930,                                 !- WMO Number
  37.7,                                   !- Latitude {deg}
  -122.2,                                 !- Longitude {deg}
  -8,                                     !- Time Zone {hr}
  2,                                      !- Elevation {m}
  /Users/llin/Documents/repo/edv-experiment-1/data/weather/temporary/temporary.epw, !- Url
  EF168BE4;                               !- Checksum

OS:Site,
  {db268dbe-42b2-4bbc-9ff9-e0507e51364c}, !- Handle
  Climate Zone 3_CA_USA,                  !- Name
  28.51768858,                            !- Latitude {deg}
  -81.3790388,                            !- Longitude {deg}
  -8,                                     !- Time Zone {hr}
  2,                                      !- Elevation {m}
  City;                                   !- Terrain

OS:Site:WaterMainsTemperature,
  {b5417f81-e049-4365-93c6-0838c785b50a}, !- Handle
  Correlation,                            !- Calculation Method
  ,                                       !- Temperature Schedule Name
  14.1416666666667,                       !- Annual Average Outdoor Air Temperature {C}
  7.8;                                    !- Maximum Difference In Monthly Average Outdoor Air Temperatures {deltaC}

OS:ClimateZones,
  {13557b6c-892b-41ac-a26f-39fea2d44bfc}, !- Handle
  ASHRAE,                                 !- Climate Zone Institution Name 1
  ANSI/ASHRAE Standard 169,               !- Climate Zone Document Name 1
  2006,                                   !- Climate Zone Document Year 1
  3C;                                     !- Climate Zone Value 1

OS:SizingPeriod:DesignDay,
  {47872575-650b-4aed-8d28-df2939c09775}, !- Handle
  Climate Zone 3 Ann Clg .4% Condns WB=>MDB, !- Name
  25.5,                                   !- Maximum Dry-Bulb Temperature {C}
  7.4,                                    !- Daily Dry-Bulb Temperature Range {deltaC}
  19.8,                                   !- Humidity Indicating Conditions at Maximum Dry-Bulb
  101301,                                 !- Barometric Pressure {Pa}
  4.9,                                    !- Wind Speed {m/s}
  290,                                    !- Wind Direction {deg}
  0,                                      !- Sky Clearness
  0,                                      !- Rain Indicator
  0,                                      !- Snow Indicator
  21,                                     !- Day of Month
  8,                                      !- Month
  SummerDesignDay,                        !- Day Type
  0,                                      !- Daylight Saving Time Indicator
  Wetbulb,                                !- Humidity Indicating Type
  ,                                       !- Humidity Indicating Day Schedule Name
  DefaultMultipliers,                     !- Dry-Bulb Temperature Range Modifier Type
  ,                                       !- Dry-Bulb Temperature Range Modifier Schedule Name
  ASHRAETau,                              !- Solar Model Indicator
  ,                                       !- Beam Solar Day Schedule Name
  ,                                       !- Diffuse Solar Day Schedule Name
  0.367,                                  !- ASHRAE Taub {dimensionless}
  2.428;                                  !- ASHRAE Taud {dimensionless}

OS:SizingPeriod:DesignDay,
  {9273c7de-aedc-41d6-b5bc-9e4b5840e293}, !- Handle
  Climate Zone 3 Ann Clg .4% Condns DB=>MWB, !- Name
  27.7,                                   !- Maximum Dry-Bulb Temperature {C}
  7.4,                                    !- Daily Dry-Bulb Temperature Range {deltaC}
  18.3,                                   !- Humidity Indicating Conditions at Maximum Dry-Bulb
  101301,                                 !- Barometric Pressure {Pa}
  4.9,                                    !- Wind Speed {m/s}
  290,                                    !- Wind Direction {deg}
  0,                                      !- Sky Clearness
  0,                                      !- Rain Indicator
  0,                                      !- Snow Indicator
  21,                                     !- Day of Month
  8,                                      !- Month
  SummerDesignDay,                        !- Day Type
  0,                                      !- Daylight Saving Time Indicator
  Wetbulb,                                !- Humidity Indicating Type
  ,                                       !- Humidity Indicating Day Schedule Name
  DefaultMultipliers,                     !- Dry-Bulb Temperature Range Modifier Type
  ,                                       !- Dry-Bulb Temperature Range Modifier Schedule Name
  ASHRAETau,                              !- Solar Model Indicator
  ,                                       !- Beam Solar Day Schedule Name
  ,                                       !- Diffuse Solar Day Schedule Name
  0.367,                                  !- ASHRAE Taub {dimensionless}
  2.428;                                  !- ASHRAE Taud {dimensionless}

OS:SizingPeriod:DesignDay,
  {cec9ea7c-d47e-4e1b-bb9d-7b028f97543e}, !- Handle
  Climate Zone 3 Ann Htg 99.6% Condns DB, !- Name
  2.9,                                    !- Maximum Dry-Bulb Temperature {C}
  0,                                      !- Daily Dry-Bulb Temperature Range {deltaC}
  2.9,                                    !- Humidity Indicating Conditions at Maximum Dry-Bulb
  101301,                                 !- Barometric Pressure {Pa}
  2.2,                                    !- Wind Speed {m/s}
  50,                                     !- Wind Direction {deg}
  0,                                      !- Sky Clearness
  0,                                      !- Rain Indicator
  0,                                      !- Snow Indicator
  21,                                     !- Day of Month
  1,                                      !- Month
  WinterDesignDay,                        !- Day Type
  0,                                      !- Daylight Saving Time Indicator
  Wetbulb,                                !- Humidity Indicating Type
  ,                                       !- Humidity Indicating Day Schedule Name
  DefaultMultipliers,                     !- Dry-Bulb Temperature Range Modifier Type
  ,                                       !- Dry-Bulb Temperature Range Modifier Schedule Name
  ASHRAEClearSky;                         !- Solar Model Indicator

OS:YearDescription,
  {c43f57a7-56aa-482e-8917-4ac1a6ddefc6}, !- Handle
  2019,                                   !- Calendar Year
  ,                                       !- Day of Week for Start Day
  ;                                       !- Is Leap Year

OS:SpaceType,
  {36c8bc5c-ee1f-46cd-9157-148a7c7b2606}, !- Handle
  SmallOffice WholeBuilding - Sm Office - 90.1-2007, !- Name
  ,                                       !- Default Construction Set Name
  {32921f1e-f9d4-470c-81d5-2c98b6a0ee7c}, !- Default Schedule Set Name
  ,                                       !- Group Rendering Name
  {e7f5b0d8-227a-4fb8-b358-8d86a1947539}, !- Design Specification Outdoor Air Object Name
  ,                                       !- Standards Template
  Office,                                 !- Standards Building Type
  WholeBuilding - Sm Office;              !- Standards Space Type

OS:Building,
  {98de5779-a809-40c2-bd20-13a4147e8ba0}, !- Handle
  90.1-2007|SmallOffice|SmallOffice,      !- Name
  ,                                       !- Building Sector Type
  ,                                       !- North Axis {deg}
  ,                                       !- Nominal Floor to Floor Height {m}
  ,                                       !- Space Type Name
  {57e37e89-c1a4-4177-8782-fcd7c172dbfe}, !- Default Construction Set Name
  {6cc73e78-4c63-44bd-9f48-b104381c82ec}, !- Default Schedule Set Name
  ,                                       !- Standards Number of Stories
  ,                                       !- Standards Number of Above Ground Stories
  ,                                       !- Standards Template
  Office;                                 !- Standards Building Type

OS:BuildingStory,
  {14879812-d35b-4b5f-a97b-9b7fef51f1ab}, !- Handle
  Story Ground,                           !- Name
  0,                                      !- Nominal Z Coordinate {m}
  3.048,                                  !- Nominal Floor to Floor Height {m}
  ,                                       !- Default Construction Set Name
  ,                                       !- Default Schedule Set Name
  ;                                       !- Group Rendering Name

OS:Space,
  {53cfc939-981f-4538-bd9c-8be733c3b821}, !- Handle
  SmallOffice WholeBuilding - Sm Office A end_a - Story Ground, !- Name
  {36c8bc5c-ee1f-46cd-9157-148a7c7b2606}, !- Space Type Name
  ,                                       !- Default Construction Set Name
  ,                                       !- Default Schedule Set Name
  -0,                                     !- Direction of Relative North {deg}
  -80.8539812259112,                      !- X Origin {m}
  -53.9026541506075,                      !- Y Origin {m}
  0,                                      !- Z Origin {m}
  {14879812-d35b-4b5f-a97b-9b7fef51f1ab}, !- Building Story Name
  {8404dbc9-d261-495f-bf48-b4f076cb5f92}; !- Thermal Zone Name

OS:Surface,
  {5de10d4f-fe47-4d18-90c3-e18daacdad4e}, !- Handle
  Surface 1,                              !- Name
  Floor,                                  !- Surface Type
  ,                                       !- Construction Name
  {53cfc939-981f-4538-bd9c-8be733c3b821}, !- Space Name
  Ground,                                 !- Outside Boundary Condition
  ,                                       !- Outside Boundary Condition Object
  NoSun,                                  !- Sun Exposure
  NoWind,                                 !- Wind Exposure
  ,                                       !- View Factor to Ground
  ,                                       !- Number of Vertices
  0, -3.5527136788005e-14, 0,             !- X,Y,Z Vertex 1 {m}
  0, 4.57199999999997, 0,                 !- X,Y,Z Vertex 2 {m}
  4.572, 4.57199999999997, 0,             !- X,Y,Z Vertex 3 {m}
  4.572, -3.5527136788005e-14, 0;         !- X,Y,Z Vertex 4 {m}

OS:Surface,
  {604ab374-a3ac-4c93-b84e-3378ff1ca2fd}, !- Handle
  Surface 2,                              !- Name
  Wall,                                   !- Surface Type
  ,                                       !- Construction Name
  {53cfc939-981f-4538-bd9c-8be733c3b821}, !- Space Name
  Outdoors,                               !- Outside Boundary Condition
  ,                                       !- Outside Boundary Condition Object
  SunExposed,                             !- Sun Exposure
  WindExposed,                            !- Wind Exposure
  ,                                       !- View Factor to Ground
  ,                                       !- Number of Vertices
  0, 4.57199999999997, 3.048,             !- X,Y,Z Vertex 1 {m}
  0, 4.57199999999997, 0,                 !- X,Y,Z Vertex 2 {m}
  0, -3.5527136788005e-14, 0,             !- X,Y,Z Vertex 3 {m}
  0, -3.5527136788005e-14, 3.048;         !- X,Y,Z Vertex 4 {m}

OS:Surface,
  {4c8e50e6-1a26-423e-beb1-28a022c1af6d}, !- Handle
  Surface 3,                              !- Name
  Wall,                                   !- Surface Type
  ,                                       !- Construction Name
  {53cfc939-981f-4538-bd9c-8be733c3b821}, !- Space Name
  Surface,                                !- Outside Boundary Condition
  {09970fc6-45a0-4cee-9389-73d9c7a41b1c}, !- Outside Boundary Condition Object
  NoSun,                                  !- Sun Exposure
  NoWind,                                 !- Wind Exposure
  ,                                       !- View Factor to Ground
  ,                                       !- Number of Vertices
  4.572, 4.57199999999997, 3.048,         !- X,Y,Z Vertex 1 {m}
  4.572, 4.57199999999997, 0,             !- X,Y,Z Vertex 2 {m}
  0, 4.57199999999997, 0,                 !- X,Y,Z Vertex 3 {m}
  0, 4.57199999999997, 3.048;             !- X,Y,Z Vertex 4 {m}

OS:Surface,
  {df5277e9-36a0-4b09-b9be-4c0035b7d552}, !- Handle
  Surface 4,                              !- Name
  Wall,                                   !- Surface Type
  ,                                       !- Construction Name
  {53cfc939-981f-4538-bd9c-8be733c3b821}, !- Space Name
  Surface,                                !- Outside Boundary Condition
  {d27966a3-7675-4954-b2b6-fe2b8a5b195c}, !- Outside Boundary Condition Object
  NoSun,                                  !- Sun Exposure
  NoWind,                                 !- Wind Exposure
  ,                                       !- View Factor to Ground
  ,                                       !- Number of Vertices
  4.572, -3.5527136788005e-14, 3.048,     !- X,Y,Z Vertex 1 {m}
  4.572, -3.5527136788005e-14, 0,         !- X,Y,Z Vertex 2 {m}
  4.572, 4.57199999999997, 0,             !- X,Y,Z Vertex 3 {m}
  4.572, 4.57199999999997, 3.048;         !- X,Y,Z Vertex 4 {m}

OS:Surface,
  {66f21e89-fa6c-4e47-bd7d-5875b0fe30cc}, !- Handle
  Surface 5,                              !- Name
  Wall,                                   !- Surface Type
  ,                                       !- Construction Name
  {53cfc939-981f-4538-bd9c-8be733c3b821}, !- Space Name
  Outdoors,                               !- Outside Boundary Condition
  ,                                       !- Outside Boundary Condition Object
  SunExposed,                             !- Sun Exposure
  WindExposed,                            !- Wind Exposure
  ,                                       !- View Factor to Ground
  ,                                       !- Number of Vertices
  0, -3.5527136788005e-14, 3.048,         !- X,Y,Z Vertex 1 {m}
  0, -3.5527136788005e-14, 0,             !- X,Y,Z Vertex 2 {m}
  4.572, -3.5527136788005e-14, 0,         !- X,Y,Z Vertex 3 {m}
  4.572, -3.5527136788005e-14, 3.048;     !- X,Y,Z Vertex 4 {m}

OS:Surface,
  {04a751ee-0074-439a-bc81-37bbbbb9399a}, !- Handle
  Surface 6,                              !- Name
  RoofCeiling,                            !- Surface Type
  ,                                       !- Construction Name
  {53cfc939-981f-4538-bd9c-8be733c3b821}, !- Space Name
  Outdoors,                               !- Outside Boundary Condition
  ,                                       !- Outside Boundary Condition Object
  SunExposed,                             !- Sun Exposure
  WindExposed,                            !- Wind Exposure
  ,                                       !- View Factor to Ground
  ,                                       !- Number of Vertices
  4.572, -3.5527136788005e-14, 3.048,     !- X,Y,Z Vertex 1 {m}
  4.572, 4.57199999999997, 3.048,         !- X,Y,Z Vertex 2 {m}
  0, 4.57199999999997, 3.048,             !- X,Y,Z Vertex 3 {m}
  0, -3.5527136788005e-14, 3.048;         !- X,Y,Z Vertex 4 {m}

OS:ThermalZone,
  {8404dbc9-d261-495f-bf48-b4f076cb5f92}, !- Handle
  Zone SmallOffice WholeBuilding - Sm Office A end_a - Story Ground, !- Name
  1,                                      !- Multiplier
  ,                                       !- Ceiling Height {m}
  ,                                       !- Volume {m3}
  ,                                       !- Floor Area {m2}
  ,                                       !- Zone Inside Convection Algorithm
  ,                                       !- Zone Outside Convection Algorithm
  ,                                       !- Zone Conditioning Equipment List Name
  {b582946c-20e3-4329-930a-ef63f11904db}, !- Zone Air Inlet Port List
  {503b176f-873d-429e-9d4a-909b73ef050a}, !- Zone Air Exhaust Port List
  {ddb68c86-695f-4b39-8ea8-1bacbe1f7920}, !- Zone Air Node Name
  {a495e066-ed83-4311-8327-5b4c5d981eec}, !- Zone Return Air Port List
  ,                                       !- Primary Daylighting Control Name
  ,                                       !- Fraction of Zone Controlled by Primary Daylighting Control
  ,                                       !- Secondary Daylighting Control Name
  ,                                       !- Fraction of Zone Controlled by Secondary Daylighting Control
  ,                                       !- Illuminance Map Name
  ,                                       !- Group Rendering Name
  {7fad3818-71b0-4b36-8695-72a458269cfe}, !- Thermostat Name
  No;                                     !- Use Ideal Air Loads

OS:Node,
  {efe01b19-5731-4794-a651-7677c0c049b2}, !- Handle
  Zone SmallOffice WholeBuilding - Sm Office A end_a - Story Ground Zone Air Node, !- Name
  {ddb68c86-695f-4b39-8ea8-1bacbe1f7920}, !- Inlet Port
  ;                                       !- Outlet Port

OS:Connection,
  {ddb68c86-695f-4b39-8ea8-1bacbe1f7920}, !- Handle
  {ce41116f-5fe5-4186-a1b5-4aca417c58c2}, !- Name
  {8404dbc9-d261-495f-bf48-b4f076cb5f92}, !- Source Object
  11,                                     !- Outlet Port
  {efe01b19-5731-4794-a651-7677c0c049b2}, !- Target Object
  2;                                      !- Inlet Port

OS:PortList,
  {b582946c-20e3-4329-930a-ef63f11904db}, !- Handle
  {13a0c28a-556f-43c2-8803-f6045d3fdac7}, !- Name
  {8404dbc9-d261-495f-bf48-b4f076cb5f92}, !- HVAC Component
  {10abf7ec-b5b7-4021-9b33-39681bcd9bd0}; !- Port 1

OS:PortList,
  {503b176f-873d-429e-9d4a-909b73ef050a}, !- Handle
  {a14adbbd-28d2-45f3-b394-f34ee5d0183b}, !- Name
  {8404dbc9-d261-495f-bf48-b4f076cb5f92}; !- HVAC Component

OS:PortList,
  {a495e066-ed83-4311-8327-5b4c5d981eec}, !- Handle
  {8c5dfd69-79fb-41d5-98f9-447d8ed40d63}, !- Name
  {8404dbc9-d261-495f-bf48-b4f076cb5f92}, !- HVAC Component
  {ff7df7cf-08d7-4d85-9de1-79d3e7fa0a17}; !- Port 1

OS:Sizing:Zone,
  {40ba4f76-f32d-4374-93f2-bb8ad25cc7b9}, !- Handle
  {8404dbc9-d261-495f-bf48-b4f076cb5f92}, !- Zone or ZoneList Name
  SupplyAirTemperature,                   !- Zone Cooling Design Supply Air Temperature Input Method
  12.7777777777778,                       !- Zone Cooling Design Supply Air Temperature {C}
  11.11,                                  !- Zone Cooling Design Supply Air Temperature Difference {deltaC}
  SupplyAirTemperature,                   !- Zone Heating Design Supply Air Temperature Input Method
  50.0000000000001,                       !- Zone Heating Design Supply Air Temperature {C}
  11.11,                                  !- Zone Heating Design Supply Air Temperature Difference {deltaC}
  0.0085,                                 !- Zone Cooling Design Supply Air Humidity Ratio {kg-H2O/kg-air}
  0.008,                                  !- Zone Heating Design Supply Air Humidity Ratio {kg-H2O/kg-air}
  ,                                       !- Zone Heating Sizing Factor
  ,                                       !- Zone Cooling Sizing Factor
  DesignDay,                              !- Cooling Design Air Flow Method
  ,                                       !- Cooling Design Air Flow Rate {m3/s}
  ,                                       !- Cooling Minimum Air Flow per Zone Floor Area {m3/s-m2}
  ,                                       !- Cooling Minimum Air Flow {m3/s}
  ,                                       !- Cooling Minimum Air Flow Fraction
  DesignDay,                              !- Heating Design Air Flow Method
  ,                                       !- Heating Design Air Flow Rate {m3/s}
  ,                                       !- Heating Maximum Air Flow per Zone Floor Area {m3/s-m2}
  ,                                       !- Heating Maximum Air Flow {m3/s}
  ,                                       !- Heating Maximum Air Flow Fraction
  No,                                     !- Account for Dedicated Outdoor Air System
  NeutralSupplyAir,                       !- Dedicated Outdoor Air System Control Strategy
  autosize,                               !- Dedicated Outdoor Air Low Setpoint Temperature for Design {C}
  autosize;                               !- Dedicated Outdoor Air High Setpoint Temperature for Design {C}

OS:ZoneHVAC:EquipmentList,
  {70b8e12d-afed-4d71-a458-9b1e3749e96b}, !- Handle
  Zone SmallOffice WholeBuilding - Sm Office A end_a - Story Ground Zone HVAC Equipment List, !- Name
  {8404dbc9-d261-495f-bf48-b4f076cb5f92}, !- Thermal Zone
  ,                                       !- Load Distribution Scheme
  {1ee3ad32-c948-455f-8333-29cc9ac621ca}, !- Zone Equipment 1
  1,                                      !- Zone Equipment Cooling Sequence 1
  1,                                      !- Zone Equipment Heating or No-Load Sequence 1
  ,                                       !- Zone Equipment Sequential Cooling Fraction Schedule Name 1
  ;                                       !- Zone Equipment Sequential Heating Fraction Schedule Name 1

OS:Space,
  {2732a236-8101-4ff7-bd55-6aa3b728d960}, !- Handle
  SmallOffice WholeBuilding - Sm Office B end_a - Story Ground, !- Name
  {36c8bc5c-ee1f-46cd-9157-148a7c7b2606}, !- Space Type Name
  ,                                       !- Default Construction Set Name
  ,                                       !- Default Schedule Set Name
  -0,                                     !- Direction of Relative North {deg}
  -80.8539812259112,                      !- X Origin {m}
  -49.3306541506075,                      !- Y Origin {m}
  0,                                      !- Z Origin {m}
  {14879812-d35b-4b5f-a97b-9b7fef51f1ab}, !- Building Story Name
  {feafd0aa-cf06-4a67-b0df-5c43e38667c3}; !- Thermal Zone Name

OS:Surface,
  {2232b4f0-3582-4ab3-a7f7-1092b56a8cd1}, !- Handle
  Surface 7,                              !- Name
  Floor,                                  !- Surface Type
  ,                                       !- Construction Name
  {2732a236-8101-4ff7-bd55-6aa3b728d960}, !- Space Name
  Ground,                                 !- Outside Boundary Condition
  ,                                       !- Outside Boundary Condition Object
  NoSun,                                  !- Sun Exposure
  NoWind,                                 !- Wind Exposure
  ,                                       !- View Factor to Ground
  ,                                       !- Number of Vertices
  0, -3.5527136788005e-14, 0,             !- X,Y,Z Vertex 1 {m}
  0, 98.661308301215, 0,                  !- X,Y,Z Vertex 2 {m}
  4.572, 98.661308301215, 0,              !- X,Y,Z Vertex 3 {m}
  4.572, -3.5527136788005e-14, 0;         !- X,Y,Z Vertex 4 {m}

OS:Surface,
  {ff460321-6599-4d8d-afc7-87798d997ff0}, !- Handle
  Surface 8,                              !- Name
  Wall,                                   !- Surface Type
  ,                                       !- Construction Name
  {2732a236-8101-4ff7-bd55-6aa3b728d960}, !- Space Name
  Outdoors,                               !- Outside Boundary Condition
  ,                                       !- Outside Boundary Condition Object
  SunExposed,                             !- Sun Exposure
  WindExposed,                            !- Wind Exposure
  ,                                       !- View Factor to Ground
  ,                                       !- Number of Vertices
  0, 98.661308301215, 3.048,              !- X,Y,Z Vertex 1 {m}
  0, 98.661308301215, 0,                  !- X,Y,Z Vertex 2 {m}
  0, -3.5527136788005e-14, 0,             !- X,Y,Z Vertex 3 {m}
  0, -3.5527136788005e-14, 3.048;         !- X,Y,Z Vertex 4 {m}

OS:Surface,
  {43098bf0-ec97-40b2-8ed8-422139348ee6}, !- Handle
  Surface 9,                              !- Name
  Wall,                                   !- Surface Type
  ,                                       !- Construction Name
  {2732a236-8101-4ff7-bd55-6aa3b728d960}, !- Space Name
  Surface,                                !- Outside Boundary Condition
  {2f0cbe0e-1fe9-4ef3-a17f-4404defd0247}, !- Outside Boundary Condition Object
  NoSun,                                  !- Sun Exposure
  NoWind,                                 !- Wind Exposure
  ,                                       !- View Factor to Ground
  ,                                       !- Number of Vertices
  4.572, 98.661308301215, 3.048,          !- X,Y,Z Vertex 1 {m}
  4.572, 98.661308301215, 0,              !- X,Y,Z Vertex 2 {m}
  0, 98.661308301215, 0,                  !- X,Y,Z Vertex 3 {m}
  0, 98.661308301215, 3.048;              !- X,Y,Z Vertex 4 {m}

OS:Surface,
  {517caa41-e8b7-4ddb-8598-2f81b8393cdd}, !- Handle
  Surface 10,                             !- Name
  Wall,                                   !- Surface Type
  ,                                       !- Construction Name
  {2732a236-8101-4ff7-bd55-6aa3b728d960}, !- Space Name
  Surface,                                !- Outside Boundary Condition
  {fcaaccde-3744-495e-a053-d9f17d0a6e4d}, !- Outside Boundary Condition Object
  NoSun,                                  !- Sun Exposure
  NoWind,                                 !- Wind Exposure
  ,                                       !- View Factor to Ground
  ,                                       !- Number of Vertices
  4.572, -3.5527136788005e-14, 3.048,     !- X,Y,Z Vertex 1 {m}
  4.572, -3.5527136788005e-14, 0,         !- X,Y,Z Vertex 2 {m}
  4.572, 98.661308301215, 0,              !- X,Y,Z Vertex 3 {m}
  4.572, 98.661308301215, 3.048;          !- X,Y,Z Vertex 4 {m}

OS:Surface,
  {09970fc6-45a0-4cee-9389-73d9c7a41b1c}, !- Handle
  Surface 11,                             !- Name
  Wall,                                   !- Surface Type
  ,                                       !- Construction Name
  {2732a236-8101-4ff7-bd55-6aa3b728d960}, !- Space Name
  Surface,                                !- Outside Boundary Condition
  {4c8e50e6-1a26-423e-beb1-28a022c1af6d}, !- Outside Boundary Condition Object
  NoSun,                                  !- Sun Exposure
  NoWind,                                 !- Wind Exposure
  ,                                       !- View Factor to Ground
  ,                                       !- Number of Vertices
  0, -3.5527136788005e-14, 3.048,         !- X,Y,Z Vertex 1 {m}
  0, -3.5527136788005e-14, 0,             !- X,Y,Z Vertex 2 {m}
  4.572, -3.5527136788005e-14, 0,         !- X,Y,Z Vertex 3 {m}
  4.572, -3.5527136788005e-14, 3.048;     !- X,Y,Z Vertex 4 {m}

OS:Surface,
  {46e4e940-de48-4e60-b1be-8768ce05d357}, !- Handle
  Surface 12,                             !- Name
  RoofCeiling,                            !- Surface Type
  ,                                       !- Construction Name
  {2732a236-8101-4ff7-bd55-6aa3b728d960}, !- Space Name
  Outdoors,                               !- Outside Boundary Condition
  ,                                       !- Outside Boundary Condition Object
  SunExposed,                             !- Sun Exposure
  WindExposed,                            !- Wind Exposure
  ,                                       !- View Factor to Ground
  ,                                       !- Number of Vertices
  4.572, -3.5527136788005e-14, 3.048,     !- X,Y,Z Vertex 1 {m}
  4.572, 98.661308301215, 3.048,          !- X,Y,Z Vertex 2 {m}
  0, 98.661308301215, 3.048,              !- X,Y,Z Vertex 3 {m}
  0, -3.5527136788005e-14, 3.048;         !- X,Y,Z Vertex 4 {m}

OS:ThermalZone,
  {feafd0aa-cf06-4a67-b0df-5c43e38667c3}, !- Handle
  Zone SmallOffice WholeBuilding - Sm Office B end_a - Story Ground, !- Name
  1,                                      !- Multiplier
  ,                                       !- Ceiling Height {m}
  ,                                       !- Volume {m3}
  ,                                       !- Floor Area {m2}
  ,                                       !- Zone Inside Convection Algorithm
  ,                                       !- Zone Outside Convection Algorithm
  ,                                       !- Zone Conditioning Equipment List Name
  {41c4718f-6c0c-45f9-a5c2-c468a4dfa961}, !- Zone Air Inlet Port List
  {3c04abc6-662d-494b-9100-86bc88143831}, !- Zone Air Exhaust Port List
  {230e53cd-50c4-4b4c-83b0-ff4851c8ce19}, !- Zone Air Node Name
  {a4b21c85-b4e6-415e-b6cc-e630a3dd1674}, !- Zone Return Air Port List
  ,                                       !- Primary Daylighting Control Name
  ,                                       !- Fraction of Zone Controlled by Primary Daylighting Control
  ,                                       !- Secondary Daylighting Control Name
  ,                                       !- Fraction of Zone Controlled by Secondary Daylighting Control
  ,                                       !- Illuminance Map Name
  ,                                       !- Group Rendering Name
  {5008a31c-3320-42b1-9c1b-f124d0ef7fd1}, !- Thermostat Name
  No;                                     !- Use Ideal Air Loads

OS:Node,
  {6eb7f77a-a476-4562-b8bc-1cbe04d4f9ed}, !- Handle
  Zone SmallOffice WholeBuilding - Sm Office B end_a - Story Ground Zone Air Node, !- Name
  {230e53cd-50c4-4b4c-83b0-ff4851c8ce19}, !- Inlet Port
  ;                                       !- Outlet Port

OS:Connection,
  {230e53cd-50c4-4b4c-83b0-ff4851c8ce19}, !- Handle
  {de806e5e-a61a-4e89-a71f-ba12db78ff3d}, !- Name
  {feafd0aa-cf06-4a67-b0df-5c43e38667c3}, !- Source Object
  11,                                     !- Outlet Port
  {6eb7f77a-a476-4562-b8bc-1cbe04d4f9ed}, !- Target Object
  2;                                      !- Inlet Port

OS:PortList,
  {41c4718f-6c0c-45f9-a5c2-c468a4dfa961}, !- Handle
  {1ac3295b-3829-4ba8-8a5e-b6797e4eaadd}, !- Name