
OS:Version,
  {d155992b-d983-4549-a96f-5770d8a83a82}, !- Handle
  3.1.0;                                  !- Version Identifier

OS:WeatherFile,
  {f847551f-0a0f-4f2d-b044-7910e48e223c}, !- Handle
  Climate Zone 3,                         !- City
  CA,                                     !- State Province Region
  USA,                                    !- Country
  CTZRV2,                                 !- Data Source
  724930,                                 !- WMO Number
  37.7,                                   !- Latitude {deg}
  -122.2,                                 !- Longitude {deg}
  -8,                                     !- Time Zone {hr}
  2,                                      !- Elevation {m}
  /Users/llin/Documents/repo/edv-experiment-1/data/weather/temporary/temporary.epw, !- Url
  EF168BE4;                               !- Checksum

OS:Site,
  {1e28861b-9893-4d71-8a4a-40067e360057}, !- Handle
  Climate Zone 3_CA_USA,                  !- Name
  28.51768858,                            !- Latitude {deg}
  -81.3790388,                            !- Longitude {deg}
  -8,                                     !- Time Zone {hr}
  2,                                      !- Elevation {m}
  City;                                   !- Terrain

OS:Site:WaterMainsTemperature,
  {52679fe8-b5b5-402d-be1a-eb07e347f82c}, !- Handle
  Correlation,                            !- Calculation Method
  ,                                       !- Temperature Schedule Name
  14.1416666666667,                       !- Annual Average Outdoor Air Temperature {C}
  7.8;                                    !- Maximum Difference In Monthly Average Outdoor Air Temperatures {deltaC}

OS:ClimateZones,
  {53fd3675-bd4f-429e-a270-af5f46fac0d6}, !- Handle
  ASHRAE,                                 !- Climate Zone Institution Name 1
  ANSI/ASHRAE Standard 169,               !- Climate Zone Document Name 1
  2006,                                   !- Climate Zone Document Year 1
  3C;                                     !- Climate Zone Value 1

OS:SizingPeriod:DesignDay,
  {f35f9752-7e2c-4fa1-9bac-0f41fa9f76bb}, !- Handle
  Climate Zone 3 Ann Clg .4% Condns WB=>MDB, !- Name
  25.5,                                   !- Maximum Dry-Bulb Temperature {C}
  7.4,                                    !- Daily Dry-Bulb Temperature Range {deltaC}
  19.8,                                   !- Humidity Indicating Conditions at Maximum Dry-Bulb
  101301,                                 !- Barometric Pressure {Pa}
  4.9,                                    !- Wind Speed {m/s}
  290,                                    !- Wind Direction {deg}
  0,                                      !- Sky Clearness
  0,                                      !- Rain Indicator
  0,                                      !- Snow Indicator
  21,                                     !- Day of Month
  8,                                      !- Month
  SummerDesignDay,                        !- Day Type
  0,                                      !- Daylight Saving Time Indicator
  Wetbulb,                                !- Humidity Indicating Type
  ,                                       !- Humidity Indicating Day Schedule Name
  DefaultMultipliers,                     !- Dry-Bulb Temperature Range Modifier Type
  ,                                       !- Dry-Bulb Temperature Range Modifier Schedule Name
  ASHRAETau,                              !- Solar Model Indicator
  ,                                       !- Beam Solar Day Schedule Name
  ,                                       !- Diffuse Solar Day Schedule Name
  0.367,                                  !- ASHRAE Taub {dimensionless}
  2.428;                                  !- ASHRAE Taud {dimensionless}

OS:SizingPeriod:DesignDay,
  {72e5a38c-5db9-48b0-bce9-f0925e73ba6d}, !- Handle
  Climate Zone 3 Ann Clg .4% Condns DB=>MWB, !- Name
  27.7,                                   !- Maximum Dry-Bulb Temperature {C}
  7.4,                                    !- Daily Dry-Bulb Temperature Range {deltaC}
  18.3,                                   !- Humidity Indicating Conditions at Maximum Dry-Bulb
  101301,                                 !- Barometric Pressure {Pa}
  4.9,                                    !- Wind Speed {m/s}
  290,                                    !- Wind Direction {deg}
  0,                                      !- Sky Clearness
  0,                                      !- Rain Indicator
  0,                                      !- Snow Indicator
  21,                                     !- Day of Month
  8,                                      !- Month
  SummerDesignDay,                        !- Day Type
  0,                                      !- Daylight Saving Time Indicator
  Wetbulb,                                !- Humidity Indicating Type
  ,                                       !- Humidity Indicating Day Schedule Name
  DefaultMultipliers,                     !- Dry-Bulb Temperature Range Modifier Type
  ,                                       !- Dry-Bulb Temperature Range Modifier Schedule Name
  ASHRAETau,                              !- Solar Model Indicator
  ,                                       !- Beam Solar Day Schedule Name
  ,                                       !- Diffuse Solar Day Schedule Name
  0.367,                                  !- ASHRAE Taub {dimensionless}
  2.428;                                  !- ASHRAE Taud {dimensionless}

OS:SizingPeriod:DesignDay,
  {e2e19563-191c-4044-a649-aeff4e430c69}, !- Handle
  Climate Zone 3 Ann Htg 99.6% Condns DB, !- Name
  2.9,                                    !- Maximum Dry-Bulb Temperature {C}
  0,                                      !- Daily Dry-Bulb Temperature Range {deltaC}
  2.9,                                    !- Humidity Indicating Conditions at Maximum Dry-Bulb
  101301,                                 !- Barometric Pressure {Pa}
  2.2,                                    !- Wind Speed {m/s}
  50,                                     !- Wind Direction {deg}
  0,                                      !- Sky Clearness
  0,                                      !- Rain Indicator
  0,                                      !- Snow Indicator
  21,                                     !- Day of Month
  1,                                      !- Month
  WinterDesignDay,                        !- Day Type
  0,                                      !- Daylight Saving Time Indicator
  Wetbulb,                                !- Humidity Indicating Type
  ,                                       !- Humidity Indicating Day Schedule Name
  DefaultMultipliers,                     !- Dry-Bulb Temperature Range Modifier Type
  ,                                       !- Dry-Bulb Temperature Range Modifier Schedule Name
  ASHRAEClearSky;                         !- Solar Model Indicator

OS:YearDescription,
  {1f24bfe4-21e6-427c-bc49-7682316caaf6}, !- Handle
  2019,                                   !- Calendar Year
  ,                                       !- Day of Week for Start Day
  ;                                       !- Is Leap Year

OS:SpaceType,
  {2962f46c-0a80-42c4-baec-05988b566c16}, !- Handle
  MediumOffice WholeBuilding - Md Office - 90.1-2007, !- Name
  ,                                       !- Default Construction Set Name
  {8439df1f-112b-4316-8f24-5a7803833413}, !- Default Schedule Set Name
  ,                                       !- Group Rendering Name
  {c9399303-4764-4878-a6bf-41e6b5a1a092}, !- Design Specification Outdoor Air Object Name
  ,                                       !- Standards Template
  Office,                                 !- Standards Building Type
  WholeBuilding - Md Office;              !- Standards Space Type

OS:Building,
  {71afdc45-aa15-4ee5-ae81-4ea5876d42e2}, !- Handle
  90.1-2007|MediumOffice|MediumOffice,    !- Name
  ,                                       !- Building Sector Type
  ,                                       !- North Axis {deg}
  ,                                       !- Nominal Floor to Floor Height {m}
  ,                                       !- Space Type Name
  {e70a8292-9b30-4874-b294-cf848548f8da}, !- Default Construction Set Name
  {ef278138-5d0f-435f-ac20-f594b04c6018}, !- Default Schedule Set Name
  ,                                       !- Standards Number of Stories
  ,                                       !- Standards Number of Above Ground Stories
  ,                                       !- Standards Template
  Office;                                 !- Standards Building Type

OS:BuildingStory,
  {669b0fe1-2c31-4143-b55a-721254c0940c}, !- Handle
  Story Ground,                           !- Name
  0,                                      !- Nominal Z Coordinate {m}
  3.9624,                                 !- Nominal Floor to Floor Height {m}
  ,                                       !- Default Construction Set Name
  ,                                       !- Default Schedule Set Name
  ;                                       !- Group Rendering Name

OS:Space,
  {e29243a5-38e4-4dc1-8e05-39a43a1a57cb}, !- Handle
  MediumOffice WholeBuilding - Md Office A end_a - Story Ground, !- Name
  {2962f46c-0a80-42c4-baec-05988b566c16}, !- Space Type Name
  ,                                       !- Default Construction Set Name
  ,                                       !- Default Schedule Set Name
  -0,                                     !- Direction of Relative North {deg}
  -116.210071561461,                      !- X Origin {m}
  -77.4733810409743,                      !- Y Origin {m}
  0,                                      !- Z Origin {m}
  {669b0fe1-2c31-4143-b55a-721254c0940c}, !- Building Story Name
  {97604db7-4074-483d-816d-1ed18919c911}; !- Thermal Zone Name

OS:Surface,
  {f6ae22bd-bd14-4143-9e54-a5b55c260fa6}, !- Handle
  Surface 1,                              !- Name
  Floor,                                  !- Surface Type
  ,                                       !- Construction Name
  {e29243a5-38e4-4dc1-8e05-39a43a1a57cb}, !- Space Name
  Ground,                                 !- Outside Boundary Condition
  ,                                       !- Outside Boundary Condition Object
  NoSun,                                  !- Sun Exposure
  NoWind,                                 !- Wind Exposure
  ,                                       !- View Factor to Ground
  ,                                       !- Number of Vertices
  4.83169060316868e-13, 2.8421709430404e-14, 0, !- X,Y,Z Vertex 1 {m}
  4.83169060316868e-13, 4.57200000000003, 0, !- X,Y,Z Vertex 2 {m}
  4.57200000000049, 4.57200000000003, 0,  !- X,Y,Z Vertex 3 {m}
  4.57200000000049, 2.8421709430404e-14, 0; !- X,Y,Z Vertex 4 {m}

OS:Surface,
  {b05dfe4b-1647-4337-b0bd-4e403f1be1b0}, !- Handle
  Surface 2,                              !- Name
  Wall,                                   !- Surface Type
  ,                                       !- Construction Name
  {e29243a5-38e4-4dc1-8e05-39a43a1a57cb}, !- Space Name
  Outdoors,                               !- Outside Boundary Condition
  ,                                       !- Outside Boundary Condition Object
  SunExposed,                             !- Sun Exposure
  WindExposed,                            !- Wind Exposure
  ,                                       !- View Factor to Ground
  ,                                       !- Number of Vertices
  4.83169060316868e-13, 4.57200000000003, 3.9624, !- X,Y,Z Vertex 1 {m}
  4.83169060316868e-13, 4.57200000000003, 0, !- X,Y,Z Vertex 2 {m}
  4.83169060316868e-13, 2.8421709430404e-14, 0, !- X,Y,Z Vertex 3 {m}
  4.83169060316868e-13, 2.8421709430404e-14, 3.9624; !- X,Y,Z Vertex 4 {m}

OS:Surface,
  {0c0dbd19-b93d-42a6-b2d0-e84cc546e663}, !- Handle
  Surface 3,                              !- Name
  Wall,                                   !- Surface Type
  ,                                       !- Construction Name
  {e29243a5-38e4-4dc1-8e05-39a43a1a57cb}, !- Space Name
  Surface,                                !- Outside Boundary Condition
  {4cbe183b-69a5-4894-bbae-0578a31aa69b}, !- Outside Boundary Condition Object
  NoSun,                                  !- Sun Exposure
  NoWind,                                 !- Wind Exposure
  ,                                       !- View Factor to Ground
  ,                                       !- Number of Vertices
  4.57200000000049, 4.57200000000003, 3.9624, !- X,Y,Z Vertex 1 {m}
  4.57200000000049, 4.57200000000003, 0,  !- X,Y,Z Vertex 2 {m}
  4.83169060316868e-13, 4.57200000000003, 0, !- X,Y,Z Vertex 3 {m}
  4.83169060316868e-13, 4.57200000000003, 3.9624; !- X,Y,Z Vertex 4 {m}

OS:Surface,
  {2171247c-f06d-46bc-9538-eb405f76b159}, !- Handle
  Surface 4,                              !- Name
  Wall,                                   !- Surface Type
  ,                                       !- Construction Name
  {e29243a5-38e4-4dc1-8e05-39a43a1a57cb}, !- Space Name
  Surface,                                !- Outside Boundary Condition
  {6414885f-0f99-4f6b-b812-af9d70eca505}, !- Outside Boundary Condition Object
  NoSun,                                  !- Sun Exposure
  NoWind,                                 !- Wind Exposure
  ,                                       !- View Factor to Ground
  ,                                       !- Number of Vertices
  4.57200000000049, 2.8421709430404e-14, 3.9624, !- X,Y,Z Vertex 1 {m}
  4.57200000000049, 2.8421709430404e-14, 0, !- X,Y,Z Vertex 2 {m}
  4.57200000000049, 4.57200000000003, 0,  !- X,Y,Z Vertex 3 {m}
  4.57200000000049, 4.57200000000003, 3.9624; !- X,Y,Z Vertex 4 {m}

OS:Surface,
  {d1627ad7-973e-492d-a740-d13ecb7a892a}, !- Handle
  Surface 5,                              !- Name
  Wall,                                   !- Surface Type
  ,                                       !- Construction Name
  {e29243a5-38e4-4dc1-8e05-39a43a1a57cb}, !- Space Name
  Outdoors,                               !- Outside Boundary Condition
  ,                                       !- Outside Boundary Condition Object
  SunExposed,                             !- Sun Exposure
  WindExposed,                            !- Wind Exposure
  ,                                       !- View Factor to Ground
  ,                                       !- Number of Vertices
  4.83169060316868e-13, 2.8421709430404e-14, 3.9624, !- X,Y,Z Vertex 1 {m}
  4.83169060316868e-13, 2.8421709430404e-14, 0, !- X,Y,Z Vertex 2 {m}
  4.57200000000049, 2.8421709430404e-14, 0, !- X,Y,Z Vertex 3 {m}
  4.57200000000049, 2.8421709430404e-14, 3.9624; !- X,Y,Z Vertex 4 {m}

OS:Surface,
  {84189254-9259-4536-8e48-e9c43c2b8c65}, !- Handle
  Surface 6,                              !- Name
  RoofCeiling,                            !- Surface Type
  ,                                       !- Construction Name
  {e29243a5-38e4-4dc1-8e05-39a43a1a57cb}, !- Space Name
  Outdoors,                               !- Outside Boundary Condition
  ,                                       !- Outside Boundary Condition Object
  SunExposed,                             !- Sun Exposure
  WindExposed,                            !- Wind Exposure
  ,                                       !- View Factor to Ground
  ,                                       !- Number of Vertices
  4.57200000000049, 2.8421709430404e-14, 3.9624, !- X,Y,Z Vertex 1 {m}
  4.57200000000049, 4.57200000000003, 3.9624, !- X,Y,Z Vertex 2 {m}
  4.83169060316868e-13, 4.57200000000003, 3.9624, !- X,Y,Z Vertex 3 {m}
  4.83169060316868e-13, 2.8421709430404e-14, 3.9624; !- X,Y,Z Vertex 4 {m}

OS:ThermalZone,
  {97604db7-4074-483d-816d-1ed18919c911}, !- Handle
  Zone MediumOffice WholeBuilding - Md Office A end_a - Story Ground, !- Name
  1,                                      !- Multiplier
  ,                                       !- Ceiling Height {m}
  ,                                       !- Volume {m3}
  ,                                       !- Floor Area {m2}
  ,                                       !- Zone Inside Convection Algorithm
  ,                                       !- Zone Outside Convection Algorithm
  ,                                       !- Zone Conditioning Equipment List Name
  {93a5bcbb-d18e-44c0-924e-28a896bac0d7}, !- Zone Air Inlet Port List
  {52f2e989-840d-44c0-9a22-a60a8c446f58}, !- Zone Air Exhaust Port List
  {ca2ec921-bf6f-424e-bfb2-6358b985b4ba}, !- Zone Air Node Name
  {3945e2eb-b4cb-4ba6-9271-ee4447dad442}, !- Zone Return Air Port List
  ,                                       !- Primary Daylighting Control Name
  ,                                       !- Fraction of Zone Controlled by Primary Daylighting Control
  ,                                       !- Secondary Daylighting Control Name
  ,                                       !- Fraction of Zone Controlled by Secondary Daylighting Control
  ,                                       !- Illuminance Map Name
  ,                                       !- Group Rendering Name
  {8ac6b971-4d61-4f69-bce4-2ea8ab119dd9}, !- Thermostat Name
  No;                                     !- Use Ideal Air Loads

OS:Node,
  {1ede4813-503e-49bf-a00a-6eacbd391b7d}, !- Handle
  Zone MediumOffice WholeBuilding - Md Office A end_a - Story Ground Zone Air Node, !- Name
  {ca2ec921-bf6f-424e-bfb2-6358b985b4ba}, !- Inlet Port
  ;                                       !- Outlet Port

OS:Connection,
  {ca2ec921-bf6f-424e-bfb2-6358b985b4ba}, !- Handle
  {212387c8-74c4-47ca-8af3-01ba5e5c0179}, !- Name
  {97604db7-4074-483d-816d-1ed18919c911}, !- Source Object
  11,                                     !- Outlet Port
  {1ede4813-503e-49bf-a00a-6eacbd391b7d}, !- Target Object
  2;                                      !- Inlet Port

OS:PortList,
  {93a5bcbb-d18e-44c0-924e-28a896bac0d7}, !- Handle
  {9ef8bf3b-fdde-4cc2-85b7-003f7c16004a}, !- Name
  {97604db7-4074-483d-816d-1ed18919c911}, !- HVAC Component
  {9b202fa5-bd5d-468a-930b-53d3209051a3}; !- Port 1

OS:PortList,
  {52f2e989-840d-44c0-9a22-a60a8c446f58}, !- Handle
  {3a0dd925-77be-4d34-9646-5eab2c12a60f}, !- Name
  {97604db7-4074-483d-816d-1ed18919c911}; !- HVAC Component

OS:PortList,
  {3945e2eb-b4cb-4ba6-9271-ee4447dad442}, !- Handle
  {696f9bb7-ae60-4ef4-a528-4d2535bfd032}, !- Name
  {97604db7-4074-483d-816d-1ed18919c911}, !- HVAC Component
  {82fb4bac-604c-4534-b791-2d280da39fa8}; !- Port 1

OS:Sizing:Zone,
  {b3d8bddf-b20f-403d-af2f-bb3d5fad4a51}, !- Handle
  {97604db7-4074-483d-816d-1ed18919c911}, !- Zone or ZoneList Name
  SupplyAirTemperature,                   !- Zone Cooling Design Supply Air Temperature Input Method
  12.7777777777778,                       !- Zone Cooling Design Supply Air Temperature {C}
  11.11,                                  !- Zone Cooling Design Supply Air Temperature Difference {deltaC}
  SupplyAirTemperature,                   !- Zone Heating Design Supply Air Temperature Input Method
  50.0000000000001,                       !- Zone Heating Design Supply Air Temperature {C}
  11.11,                                  !- Zone Heating Design Supply Air Temperature Difference {deltaC}
  0.0085,                                 !- Zone Cooling Design Supply Air Humidity Ratio {kg-H2O/kg-air}
  0.008,                                  !- Zone Heating Design Supply Air Humidity Ratio {kg-H2O/kg-air}
  ,                                       !- Zone Heating Sizing Factor
  ,                                       !- Zone Cooling Sizing Factor
  DesignDay,                              !- Cooling Design Air Flow Method
  ,                                       !- Cooling Design Air Flow Rate {m3/s}
  ,                                       !- Cooling Minimum Air Flow per Zone Floor Area {m3/s-m2}
  ,                                       !- Cooling Minimum Air Flow {m3/s}
  ,                                       !- Cooling Minimum Air Flow Fraction
  DesignDay,                              !- Heating Design Air Flow Method
  ,                                       !- Heating Design Air Flow Rate {m3/s}
  ,                                       !- Heating Maximum Air Flow per Zone Floor Area {m3/s-m2}
  ,                                       !- Heating Maximum Air Flow {m3/s}
  ,                                       !- Heating Maximum Air Flow Fraction
  No,                                     !- Account for Dedicated Outdoor Air System
  NeutralSupplyAir,                       !- Dedicated Outdoor Air System Control Strategy
  autosize,                               !- Dedicated Outdoor Air Low Setpoint Temperature for Design {C}
  autosize;                               !- Dedicated Outdoor Air High Setpoint Temperature for Design {C}

OS:ZoneHVAC:EquipmentList,
  {cadfd02d-e14b-4498-a434-b083fd9f76d9}, !- Handle
  Zone MediumOffice WholeBuilding - Md Office A end_a - Story Ground Zone HVAC Equipment List, !- Name
  {97604db7-4074-483d-816d-1ed18919c911}, !- Thermal Zone
  ,                                       !- Load Distribution Scheme
  {777f0300-c34b-40cc-8e3c-8891b906295b}, !- Zone Equipment 1
  1,                                      !- Zone Equipment Cooling Sequence 1
  1,                                      !- Zone Equipment Heating or No-Load Sequence 1
  ,                                       !- Zone Equipment Sequential Cooling Fraction Schedule Name 1
  ;                                       !- Zone Equipment Sequential Heating Fraction Schedule Name 1

OS:Space,
  {fdc1e866-6b9a-42a2-9d96-6a8459cc38da}, !- Handle
  MediumOffice WholeBuilding - Md Office B end_a - Story Ground, !- Name
  {2962f46c-0a80-42c4-baec-05988b566c16}, !- Space Type Name
  ,                                       !- Default Construction Set Name
  ,                                       !- Default Schedule Set Name
  -0,                                     !- Direction of Relative North {deg}
  -116.210071561461,                      !- X Origin {m}
  -72.9013810409743,                      !- Y Origin {m}
  0,                                      !- Z Origin {m}
  {669b0fe1-2c31-4143-b55a-721254c0940c}, !- Building Story Name
  {c8169c42-484a-4f91-ba4b-a1b74d301a02}; !- Thermal Zone Name

OS:Surface,
  {a71d30fa-83f6-4aa4-8581-402d328dde87}, !- Handle
  Surface 7,                              !- Name
  Floor,                                  !- Surface Type
  ,                                       !- Construction Name
  {fdc1e866-6b9a-42a2-9d96-6a8459cc38da}, !- Space Name
  Ground,                                 !- Outside Boundary Condition
  ,                                       !- Outside Boundary Condition Object
  NoSun,                                  !- Sun Exposure
  NoWind,                                 !- Wind Exposure
  ,                                       !- View Factor to Ground
  ,                                       !- Number of Vertices
  4.83169060316868e-13, 2.8421709430404e-14, 0, !- X,Y,Z Vertex 1 {m}
  4.83169060316868e-13, 145.802762081949, 0, !- X,Y,Z Vertex 2 {m}
  4.57200000000049, 145.802762081949, 0,  !- X,Y,Z Vertex 3 {m}
  4.57200000000049, 2.8421709430404e-14, 0; !- X,Y,Z Vertex 4 {m}

OS:Surface,
  {596dbf67-e09c-403f-bcac-8dd08cf13c0e}, !- Handle
  Surface 8,                              !- Name
  Wall,                                   !- Surface Type
  ,                                       !- Construction Name
  {fdc1e866-6b9a-42a2-9d96-6a8459cc38da}, !- Space Name
  Outdoors,                               !- Outside Boundary Condition
  ,                                       !- Outside Boundary Condition Object
  SunExposed,                             !- Sun Exposure
  WindExposed,                            !- Wind Exposure
  ,                                       !- View Factor to Ground
  ,                                       !- Number of Vertices
  4.83169060316868e-13, 145.802762081949, 3.9624, !- X,Y,Z Vertex 1 {m}
  4.83169060316868e-13, 145.802762081949, 0, !- X,Y,Z Vertex 2 {m}
  4.83169060316868e-13, 2.8421709430404e-14, 0, !- X,Y,Z Vertex 3 {m}
  4.83169060316868e-13, 2.8421709430404e-14, 3.9624; !- X,Y,Z Vertex 4 {m}

OS:Surface,
  {10b73da0-964e-4c64-acae-2d7982448695}, !- Handle
  Surface 9,                              !- Name
  Wall,                                   !- Surface Type
  ,                                       !- Construction Name
  {fdc1e866-6b9a-42a2-9d96-6a8459cc38da}, !- Space Name
  Surface,                                !- Outside Boundary Condition
  {0eae2505-2428-4344-913c-6ec1079d43b8}, !- Outside Boundary Condition Object
  NoSun,                                  !- Sun Exposure
  NoWind,                                 !- Wind Exposure
  ,                                       !- View Factor to Ground
  ,                                       !- Number of Vertices
  4.57200000000049, 145.802762081949, 3.9624, !- X,Y,Z Vertex 1 {m}
  4.57200000000049, 145.802762081949, 0,  !- X,Y,Z Vertex 2 {m}
  4.83169060316868e-13, 145.802762081949, 0, !- X,Y,Z Vertex 3 {m}
  4.83169060316868e-13, 145.802762081949, 3.9624; !- X,Y,Z Vertex 4 {m}

OS:Surface,
  {f9cb0c42-9e4b-4583-a85d-93921573f0cd}, !- Handle
  Surface 10,                             !- Name
  Wall,                                   !- Surface Type
  ,                                       !- Construction Name
  {fdc1e866-6b9a-42a2-9d96-6a8459cc38da}, !- Space Name
  Surface,                                !- Outside Boundary Condition
  {0c4094a8-db37-4d01-9098-af9e712206e8}, !- Outside Boundary Condition Object
  NoSun,                                  !- Sun Exposure
  NoWind,                                 !- Wind Exposure
  ,                                       !- View Factor to Ground
  ,                                       !- Number of Vertices
  4.57200000000049, 2.8421709430404e-14, 3.9624, !- X,Y,Z Vertex 1 {m}
  4.57200000000049, 2.8421709430404e-14, 0, !- X,Y,Z Vertex 2 {m}
  4.57200000000049, 145.802762081949, 0,  !- X,Y,Z Vertex 3 {m}
  4.57200000000049, 145.802762081949, 3.9624; !- X,Y,Z Vertex 4 {m}

OS:Surface,
  {4cbe183b-69a5-4894-bbae-0578a31aa69b}, !- Handle
  Surface 11,                             !- Name
  Wall,                                   !- Surface Type
  ,                                       !- Construction Name
  {fdc1e866-6b9a-42a2-9d96-6a8459cc38da}, !- Space Name
  Surface,                                !- Outside Boundary Condition
  {0c0dbd19-b93d-42a6-b2d0-e84cc546e663}, !- Outside Boundary Condition Object
  NoSun,                                  !- Sun Exposure
  NoWind,                                 !- Wind Exposure
  ,                                       !- View Factor to Ground
  ,                                       !- Number of Vertices
  4.83169060316868e-13, 2.8421709430404e-14, 3.9624, !- X,Y,Z Vertex 1 {m}
  4.83169060316868e-13, 2.8421709430404e-14, 0, !- X,Y,Z Vertex 2 {m}
  4.57200000000049, 2.8421709430404e-14, 0, !- X,Y,Z Vertex 3 {m}
  4.57200000000049, 2.8421709430404e-14, 3.9624; !- X,Y,Z Vertex 4 {m}

OS:Surface,
  {d0899617-9f9a-4a66-9dba-a35446a3d806}, !- Handle
  Surface 12,                             !- Name
  RoofCeiling,                            !- Surface Type
  ,                                       !- Construction Name
  {fdc1e866-6b9a-42a2-9d96-6a8459cc38da}, !- Space Name
  Outdoors,                               !- Outside Boundary Condition
  ,                                       !- Outside Boundary Condition Object
  SunExposed,                             !- Sun Exposure
  WindExposed,                            !- Wind Exposure
  ,                                       !- View Factor to Ground
  ,                                       !- Number of Vertices
  4.57200000000049, 2.8421709430404e-14, 3.9624, !- X,Y,Z Vertex 1 {m}
  4.57200000000049, 145.802762081949, 3.9624, !- X,Y,Z Vertex 2 {m}
  4.83169060316868e-13, 145.802762081949, 3.9624, !- X,Y,Z Vertex 3 {m}
  4.83169060316868e-13, 2.8421709430404e-14, 3.9624; !- X,Y,Z Vertex 4 {m}

OS:ThermalZone,
  {c8169c42-484a-4f91-ba4b-a1b74d301a02}, !- Handle
  Zone MediumOffice WholeBuilding - Md Office B end_a - Story Ground, !- Name
  1,                                      !- Multiplier
  ,                                       !- Ceiling Height {m}
  ,                                       !- Volume {m3}
  ,                                       !- Floor Area {m2}
  ,                                       !- Zone Inside Convection Algorithm
  ,                                       !- Zone Outside Convection Algorithm
  ,                                       !- Zone Conditioning Equipment List Name
  {441cabbc-43b4-4ae6-ae83-35e249752f89}, !- Zone Air Inlet Port List
  {d7b6b24b-a594-41c2-bb1b-d1cfceb17bdc}, !- Zone Air Exhaust Port List
  {063287ff-aee4-4688-8aed-6eb94b15308a}, !- Zone Air Node Name
  {dabe46b4-7298-466d-bc2d-1ac8647cb41a}, !- Zone Return Air Port List
  ,                                       !- Primary Daylighting Control Name
  ,                                       !- Fraction of Zone Controlled by Primary Daylighting Control
  ,                                       !- Secondary Daylighting Control Name
  ,                                       !- Fraction of Zone Controlled by Secondary Daylighting Control
  ,                                       !- Illuminance Map Name
  ,                                       !- Group Rendering Name
  {f7bcc459-13ee-4665-912e-fdc5dfc1f947}, !- Thermostat Name
  No;                                     !- Use Ideal Air Loads

OS:Node,
  {aed1c8d4-43b2-4d29-84ec-838718fb7e49}, !- Handle
  Zone MediumOffice WholeBuilding - Md Office B end_a - Story Ground Zone Air Node, !- Name
  {063287ff-aee4-4688-8aed-6eb94b15308a}, !- Inlet Port
  ;                                       !- Outlet Port

OS:Connection,
  {063287ff-aee4-4688-8aed-6eb94b15308a}, !- Handle
  {1e3582a1-b030-4891-8d68-320e3bfdaf24}, !- Name
  {c8169c42-484a-4f91-ba4b-a1b74d301a02}, !- Source Object