
OS:Version,
  {af5372aa-4526-441e-97f9-cb60bac0819e}, !- Handle
  3.1.0;                                  !- Version Identifier

OS:WeatherFile,
  {92535f09-f818-4c9d-9b4d-4b3fe6531161}, !- Handle
  Climate Zone 3,                         !- City
  CA,                                     !- State Province Region
  USA,                                    !- Country
  CTZRV2,                                 !- Data Source
  724930,                                 !- WMO Number
  37.7,                                   !- Latitude {deg}
  -122.2,                                 !- Longitude {deg}
  -8,                                     !- Time Zone {hr}
  2,                                      !- Elevation {m}
  /Users/llin/Documents/repo/edv-experiment-1/data/weather/temporary/temporary.epw, !- Url
  EF168BE4;                               !- Checksum

OS:Site,
  {b5593d66-6da5-41e3-a83e-f8c77c69b5bc}, !- Handle
  Climate Zone 3_CA_USA,                  !- Name
  28.51768858,                            !- Latitude {deg}
  -81.3790388,                            !- Longitude {deg}
  -8,                                     !- Time Zone {hr}
  2,                                      !- Elevation {m}
  City;                                   !- Terrain

OS:Site:WaterMainsTemperature,
  {8a55afb4-0647-4e52-a0a6-644a4c97499b}, !- Handle
  Correlation,                            !- Calculation Method
  ,                                       !- Temperature Schedule Name
  14.1416666666667,                       !- Annual Average Outdoor Air Temperature {C}
  7.8;                                    !- Maximum Difference In Monthly Average Outdoor Air Temperatures {deltaC}

OS:ClimateZones,
  {256c82be-5246-4335-ab50-e45da2206b96}, !- Handle
  ASHRAE,                                 !- Climate Zone Institution Name 1
  ANSI/ASHRAE Standard 169,               !- Climate Zone Document Name 1
  2006,                                   !- Climate Zone Document Year 1
  3C;                                     !- Climate Zone Value 1

OS:SizingPeriod:DesignDay,
  {a9c17a1d-914b-4209-9fdf-85a7461b427b}, !- Handle
  Climate Zone 3 Ann Clg .4% Condns WB=>MDB, !- Name
  25.5,                                   !- Maximum Dry-Bulb Temperature {C}
  7.4,                                    !- Daily Dry-Bulb Temperature Range {deltaC}
  19.8,                                   !- Humidity Indicating Conditions at Maximum Dry-Bulb
  101301,                                 !- Barometric Pressure {Pa}
  4.9,                                    !- Wind Speed {m/s}
  290,                                    !- Wind Direction {deg}
  0,                                      !- Sky Clearness
  0,                                      !- Rain Indicator
  0,                                      !- Snow Indicator
  21,                                     !- Day of Month
  8,                                      !- Month
  SummerDesignDay,                        !- Day Type
  0,                                      !- Daylight Saving Time Indicator
  Wetbulb,                                !- Humidity Indicating Type
  ,                                       !- Humidity Indicating Day Schedule Name
  DefaultMultipliers,                     !- Dry-Bulb Temperature Range Modifier Type
  ,                                       !- Dry-Bulb Temperature Range Modifier Schedule Name
  ASHRAETau,                              !- Solar Model Indicator
  ,                                       !- Beam Solar Day Schedule Name
  ,                                       !- Diffuse Solar Day Schedule Name
  0.367,                                  !- ASHRAE Taub {dimensionless}
  2.428;                                  !- ASHRAE Taud {dimensionless}

OS:SizingPeriod:DesignDay,
  {cd8026b3-44f6-45b2-bc3e-fee6cd43c3b5}, !- Handle
  Climate Zone 3 Ann Clg .4% Condns DB=>MWB, !- Name
  27.7,                                   !- Maximum Dry-Bulb Temperature {C}
  7.4,                                    !- Daily Dry-Bulb Temperature Range {deltaC}
  18.3,                                   !- Humidity Indicating Conditions at Maximum Dry-Bulb
  101301,                                 !- Barometric Pressure {Pa}
  4.9,                                    !- Wind Speed {m/s}
  290,                                    !- Wind Direction {deg}
  0,                                      !- Sky Clearness
  0,                                      !- Rain Indicator
  0,                                      !- Snow Indicator
  21,                                     !- Day of Month
  8,                                      !- Month
  SummerDesignDay,                        !- Day Type
  0,                                      !- Daylight Saving Time Indicator
  Wetbulb,                                !- Humidity Indicating Type
  ,                                       !- Humidity Indicating Day Schedule Name
  DefaultMultipliers,                     !- Dry-Bulb Temperature Range Modifier Type
  ,                                       !- Dry-Bulb Temperature Range Modifier Schedule Name
  ASHRAETau,                              !- Solar Model Indicator
  ,                                       !- Beam Solar Day Schedule Name
  ,                                       !- Diffuse Solar Day Schedule Name
  0.367,                                  !- ASHRAE Taub {dimensionless}
  2.428;                                  !- ASHRAE Taud {dimensionless}

OS:SizingPeriod:DesignDay,
  {2e51745b-3431-42ab-916b-752236ef2574}, !- Handle
  Climate Zone 3 Ann Htg 99.6% Condns DB, !- Name
  2.9,                                    !- Maximum Dry-Bulb Temperature {C}
  0,                                      !- Daily Dry-Bulb Temperature Range {deltaC}
  2.9,                                    !- Humidity Indicating Conditions at Maximum Dry-Bulb
  101301,                                 !- Barometric Pressure {Pa}
  2.2,                                    !- Wind Speed {m/s}
  50,                                     !- Wind Direction {deg}
  0,                                      !- Sky Clearness
  0,                                      !- Rain Indicator
  0,                                      !- Snow Indicator
  21,                                     !- Day of Month
  1,                                      !- Month
  WinterDesignDay,                        !- Day Type
  0,                                      !- Daylight Saving Time Indicator
  Wetbulb,                                !- Humidity Indicating Type
  ,                                       !- Humidity Indicating Day Schedule Name
  DefaultMultipliers,                     !- Dry-Bulb Temperature Range Modifier Type
  ,                                       !- Dry-Bulb Temperature Range Modifier Schedule Name
  ASHRAEClearSky;                         !- Solar Model Indicator

OS:YearDescription,
  {84584c2a-7ac5-4ca7-9ab4-975fbf2eebc5}, !- Handle
  2019,                                   !- Calendar Year
  ,                                       !- Day of Week for Start Day
  ;                                       !- Is Leap Year

OS:SpaceType,
  {049c452f-0ab4-44c0-b554-f1d0fdef48e8}, !- Handle
  SmallOffice WholeBuilding - Sm Office - DOE Ref 1980-2004, !- Name
  ,                                       !- Default Construction Set Name
  {0fa803b0-77e8-4034-8242-90c72f5fd841}, !- Default Schedule Set Name
  ,                                       !- Group Rendering Name
  {64ce0ea7-ff40-4c1e-bf1e-29762379da70}, !- Design Specification Outdoor Air Object Name
  ,                                       !- Standards Template
  Office,                                 !- Standards Building Type
  WholeBuilding - Sm Office;              !- Standards Space Type

OS:Building,
  {e4c401cf-d7b7-446e-9743-ed4769d05dad}, !- Handle
  DOE Ref 1980-2004|SmallOffice|SmallOffice, !- Name
  ,                                       !- Building Sector Type
  ,                                       !- North Axis {deg}
  ,                                       !- Nominal Floor to Floor Height {m}
  ,                                       !- Space Type Name
  {a08ec68f-e22e-44d5-b4a5-d54dad6a3b08}, !- Default Construction Set Name
  {fa077757-2c84-4e22-84a2-24164046bc3d}, !- Default Schedule Set Name
  ,                                       !- Standards Number of Stories
  ,                                       !- Standards Number of Above Ground Stories
  ,                                       !- Standards Template
  Office;                                 !- Standards Building Type

OS:BuildingStory,
  {de436d3c-9255-4e37-b4e5-b1a25a6d05cf}, !- Handle
  Story Ground,                           !- Name
  0,                                      !- Nominal Z Coordinate {m}
  3.048,                                  !- Nominal Floor to Floor Height {m}
  ,                                       !- Default Construction Set Name
  ,                                       !- Default Schedule Set Name
  ;                                       !- Group Rendering Name

OS:Space,
  {90db4540-dc39-4961-8baf-b79933d794c7}, !- Handle
  SmallOffice WholeBuilding - Sm Office A end_a - Story Ground, !- Name
  {049c452f-0ab4-44c0-b554-f1d0fdef48e8}, !- Space Type Name
  ,                                       !- Default Construction Set Name
  ,                                       !- Default Schedule Set Name
  -0,                                     !- Direction of Relative North {deg}
  -11.860793747469,                       !- X Origin {m}
  -7.90719583164601,                      !- Y Origin {m}
  0,                                      !- Z Origin {m}
  {de436d3c-9255-4e37-b4e5-b1a25a6d05cf}, !- Building Story Name
  {5fcd5a45-4dab-45e6-9006-be4e69ce3d7b}; !- Thermal Zone Name

OS:Surface,
  {8c6fa82e-010f-474f-9e90-adab923d931c}, !- Handle
  Surface 1,                              !- Name
  Floor,                                  !- Surface Type
  ,                                       !- Construction Name
  {90db4540-dc39-4961-8baf-b79933d794c7}, !- Space Name
  Ground,                                 !- Outside Boundary Condition
  ,                                       !- Outside Boundary Condition Object
  NoSun,                                  !- Sun Exposure
  NoWind,                                 !- Wind Exposure
  ,                                       !- View Factor to Ground
  ,                                       !- Number of Vertices
  1.24344978758018e-14, -1.77635683940025e-15, 0, !- X,Y,Z Vertex 1 {m}
  1.24344978758018e-14, 4.572, 0,         !- X,Y,Z Vertex 2 {m}
  4.572, 4.572, 0,                        !- X,Y,Z Vertex 3 {m}
  4.572, -1.77635683940025e-15, 0;        !- X,Y,Z Vertex 4 {m}

OS:Surface,
  {39170305-899b-4862-8754-194200b5fae0}, !- Handle
  Surface 2,                              !- Name
  Wall,                                   !- Surface Type
  ,                                       !- Construction Name
  {90db4540-dc39-4961-8baf-b79933d794c7}, !- Space Name
  Outdoors,                               !- Outside Boundary Condition
  ,                                       !- Outside Boundary Condition Object
  SunExposed,                             !- Sun Exposure
  WindExposed,                            !- Wind Exposure
  ,                                       !- View Factor to Ground
  ,                                       !- Number of Vertices
  1.24344978758018e-14, 4.572, 3.048,     !- X,Y,Z Vertex 1 {m}
  1.24344978758018e-14, 4.572, 0,         !- X,Y,Z Vertex 2 {m}
  1.24344978758018e-14, -1.77635683940025e-15, 0, !- X,Y,Z Vertex 3 {m}
  1.24344978758018e-14, -1.77635683940025e-15, 3.048; !- X,Y,Z Vertex 4 {m}

OS:Surface,
  {378c1de7-f8a6-48cb-9938-87664f7bb7f0}, !- Handle
  Surface 3,                              !- Name
  Wall,                                   !- Surface Type
  ,                                       !- Construction Name
  {90db4540-dc39-4961-8baf-b79933d794c7}, !- Space Name
  Surface,                                !- Outside Boundary Condition
  {665367fe-505f-4a73-9712-11c4e1a6713c}, !- Outside Boundary Condition Object
  NoSun,                                  !- Sun Exposure
  NoWind,                                 !- Wind Exposure
  ,                                       !- View Factor to Ground
  ,                                       !- Number of Vertices
  4.572, 4.572, 3.048,                    !- X,Y,Z Vertex 1 {m}
  4.572, 4.572, 0,                        !- X,Y,Z Vertex 2 {m}
  1.24344978758018e-14, 4.572, 0,         !- X,Y,Z Vertex 3 {m}
  1.24344978758018e-14, 4.572, 3.048;     !- X,Y,Z Vertex 4 {m}

OS:Surface,
  {9b81907a-554c-4f44-be44-ea4e6977ffcd}, !- Handle
  Surface 4,                              !- Name
  Wall,                                   !- Surface Type
  ,                                       !- Construction Name
  {90db4540-dc39-4961-8baf-b79933d794c7}, !- Space Name
  Surface,                                !- Outside Boundary Condition
  {94c0cc07-95f7-424f-b609-7c4ee2f19754}, !- Outside Boundary Condition Object
  NoSun,                                  !- Sun Exposure
  NoWind,                                 !- Wind Exposure
  ,                                       !- View Factor to Ground
  ,                                       !- Number of Vertices
  4.572, -1.77635683940025e-15, 3.048,    !- X,Y,Z Vertex 1 {m}
  4.572, -1.77635683940025e-15, 0,        !- X,Y,Z Vertex 2 {m}
  4.572, 4.572, 0,                        !- X,Y,Z Vertex 3 {m}
  4.572, 4.572, 3.048;                    !- X,Y,Z Vertex 4 {m}

OS:Surface,
  {9a81155f-dd04-4301-9522-a0fc96997586}, !- Handle
  Surface 5,                              !- Name
  Wall,                                   !- Surface Type
  ,                                       !- Construction Name
  {90db4540-dc39-4961-8baf-b79933d794c7}, !- Space Name
  Outdoors,                               !- Outside Boundary Condition
  ,                                       !- Outside Boundary Condition Object
  SunExposed,                             !- Sun Exposure
  WindExposed,                            !- Wind Exposure
  ,                                       !- View Factor to Ground
  ,                                       !- Number of Vertices
  1.24344978758018e-14, -1.77635683940025e-15, 3.048, !- X,Y,Z Vertex 1 {m}
  1.24344978758018e-14, -1.77635683940025e-15, 0, !- X,Y,Z Vertex 2 {m}
  4.572, -1.77635683940025e-15, 0,        !- X,Y,Z Vertex 3 {m}
  4.572, -1.77635683940025e-15, 3.048;    !- X,Y,Z Vertex 4 {m}

OS:Surface,
  {5201a56b-340d-4eb5-a869-ed28c43b9f07}, !- Handle
  Surface 6,                              !- Name
  RoofCeiling,                            !- Surface Type
  ,                                       !- Construction Name
  {90db4540-dc39-4961-8baf-b79933d794c7}, !- Space Name
  Outdoors,                               !- Outside Boundary Condition
  ,                                       !- Outside Boundary Condition Object
  SunExposed,                             !- Sun Exposure
  WindExposed,                            !- Wind Exposure
  ,                                       !- View Factor to Ground
  ,                                       !- Number of Vertices
  4.572, -1.77635683940025e-15, 3.048,    !- X,Y,Z Vertex 1 {m}
  4.572, 4.572, 3.048,                    !- X,Y,Z Vertex 2 {m}
  1.24344978758018e-14, 4.572, 3.048,     !- X,Y,Z Vertex 3 {m}
  1.24344978758018e-14, -1.77635683940025e-15, 3.048; !- X,Y,Z Vertex 4 {m}

OS:ThermalZone,
  {5fcd5a45-4dab-45e6-9006-be4e69ce3d7b}, !- Handle
  Zone SmallOffice WholeBuilding - Sm Office A end_a - Story Ground, !- Name
  1,                                      !- Multiplier
  ,                                       !- Ceiling Height {m}
  ,                                       !- Volume {m3}
  ,                                       !- Floor Area {m2}
  ,                                       !- Zone Inside Convection Algorithm
  ,                                       !- Zone Outside Convection Algorithm
  ,                                       !- Zone Conditioning Equipment List Name
  {d8579f3b-0f71-40b6-81f3-a1a4b11b8477}, !- Zone Air Inlet Port List
  {e493c5ae-16ee-4776-a35f-dec0b3513d12}, !- Zone Air Exhaust Port List
  {434015b0-4b32-4ba9-ad34-4c441ea675cf}, !- Zone Air Node Name
  {34798e1c-859f-4171-a4b4-151fb5de0195}, !- Zone Return Air Port List
  ,                                       !- Primary Daylighting Control Name
  ,                                       !- Fraction of Zone Controlled by Primary Daylighting Control
  ,                                       !- Secondary Daylighting Control Name
  ,                                       !- Fraction of Zone Controlled by Secondary Daylighting Control
  ,                                       !- Illuminance Map Name
  ,                                       !- Group Rendering Name
  {15122697-a7fe-4c62-8067-e06392ee3699}, !- Thermostat Name
  No;                                     !- Use Ideal Air Loads

OS:Node,
  {08243a85-f9fa-420c-9150-cc510a1bc7bf}, !- Handle
  Zone SmallOffice WholeBuilding - Sm Office A end_a - Story Ground Zone Air Node, !- Name
  {434015b0-4b32-4ba9-ad34-4c441ea675cf}, !- Inlet Port
  ;                                       !- Outlet Port

OS:Connection,
  {434015b0-4b32-4ba9-ad34-4c441ea675cf}, !- Handle
  {4e7fba49-b9eb-4bc3-a173-dc01f96862e1}, !- Name
  {5fcd5a45-4dab-45e6-9006-be4e69ce3d7b}, !- Source Object
  11,                                     !- Outlet Port
  {08243a85-f9fa-420c-9150-cc510a1bc7bf}, !- Target Object
  2;                                      !- Inlet Port

OS:PortList,
  {d8579f3b-0f71-40b6-81f3-a1a4b11b8477}, !- Handle
  {5e0f6598-9a48-49c6-a6ab-8ca5a6d5d64d}, !- Name
  {5fcd5a45-4dab-45e6-9006-be4e69ce3d7b}, !- HVAC Component
  {85b482c7-51eb-4160-8d8a-85242bb6a3d1}; !- Port 1

OS:PortList,
  {e493c5ae-16ee-4776-a35f-dec0b3513d12}, !- Handle
  {d4811165-cb6b-4d77-a840-55486e392123}, !- Name
  {5fcd5a45-4dab-45e6-9006-be4e69ce3d7b}; !- HVAC Component

OS:PortList,
  {34798e1c-859f-4171-a4b4-151fb5de0195}, !- Handle
  {dc55d663-6161-4a7b-aab6-d93bfefac4a8}, !- Name
  {5fcd5a45-4dab-45e6-9006-be4e69ce3d7b}, !- HVAC Component
  {f45bed89-8bc6-4242-a2ea-d5fda579b9b2}; !- Port 1

OS:Sizing:Zone,
  {b05ad88d-9c4b-4259-9f72-4c2c433556bc}, !- Handle
  {5fcd5a45-4dab-45e6-9006-be4e69ce3d7b}, !- Zone or ZoneList Name
  SupplyAirTemperature,                   !- Zone Cooling Design Supply Air Temperature Input Method
  12.7777777777778,                       !- Zone Cooling Design Supply Air Temperature {C}
  11.11,                                  !- Zone Cooling Design Supply Air Temperature Difference {deltaC}
  SupplyAirTemperature,                   !- Zone Heating Design Supply Air Temperature Input Method
  50.0000000000001,                       !- Zone Heating Design Supply Air Temperature {C}
  11.11,                                  !- Zone Heating Design Supply Air Temperature Difference {deltaC}
  0.0085,                                 !- Zone Cooling Design Supply Air Humidity Ratio {kg-H2O/kg-air}
  0.008,                                  !- Zone Heating Design Supply Air Humidity Ratio {kg-H2O/kg-air}
  ,                                       !- Zone Heating Sizing Factor
  ,                                       !- Zone Cooling Sizing Factor
  DesignDay,                              !- Cooling Design Air Flow Method
  ,                                       !- Cooling Design Air Flow Rate {m3/s}
  ,                                       !- Cooling Minimum Air Flow per Zone Floor Area {m3/s-m2}
  ,                                       !- Cooling Minimum Air Flow {m3/s}
  ,                                       !- Cooling Minimum Air Flow Fraction
  DesignDay,                              !- Heating Design Air Flow Method
  ,                                       !- Heating Design Air Flow Rate {m3/s}
  ,                                       !- Heating Maximum Air Flow per Zone Floor Area {m3/s-m2}
  ,                                       !- Heating Maximum Air Flow {m3/s}
  ,                                       !- Heating Maximum Air Flow Fraction
  No,                                     !- Account for Dedicated Outdoor Air System
  NeutralSupplyAir,                       !- Dedicated Outdoor Air System Control Strategy
  autosize,                               !- Dedicated Outdoor Air Low Setpoint Temperature for Design {C}
  autosize;                               !- Dedicated Outdoor Air High Setpoint Temperature for Design {C}

OS:ZoneHVAC:EquipmentList,
  {d55f0fcb-6a24-480c-bca8-aa712f2eaf21}, !- Handle
  Zone SmallOffice WholeBuilding - Sm Office A end_a - Story Ground Zone HVAC Equipment List, !- Name
  {5fcd5a45-4dab-45e6-9006-be4e69ce3d7b}, !- Thermal Zone
  ,                                       !- Load Distribution Scheme
  {6ceba821-57bf-4481-b5fe-f2a74c51760c}, !- Zone Equipment 1
  1,                                      !- Zone Equipment Cooling Sequence 1
  1,                                      !- Zone Equipment Heating or No-Load Sequence 1
  ,                                       !- Zone Equipment Sequential Cooling Fraction Schedule Name 1
  ;                                       !- Zone Equipment Sequential Heating Fraction Schedule Name 1

OS:Space,
  {5ef8d9d3-8118-4b54-8063-13a3aed709cc}, !- Handle
  SmallOffice WholeBuilding - Sm Office B end_a - Story Ground, !- Name
  {049c452f-0ab4-44c0-b554-f1d0fdef48e8}, !- Space Type Name
  ,                                       !- Default Construction Set Name
  ,                                       !- Default Schedule Set Name
  -0,                                     !- Direction of Relative North {deg}
  -11.860793747469,                       !- X Origin {m}
  -3.33519583164601,                      !- Y Origin {m}
  0,                                      !- Z Origin {m}
  {de436d3c-9255-4e37-b4e5-b1a25a6d05cf}, !- Building Story Name
  {0d94d3ac-9616-47e2-b1c5-873c57a562e4}; !- Thermal Zone Name

OS:Surface,
  {18e9f814-7fbd-4a1b-ba82-67f3b6fc36f4}, !- Handle
  Surface 7,                              !- Name
  Floor,                                  !- Surface Type
  ,                                       !- Construction Name
  {5ef8d9d3-8118-4b54-8063-13a3aed709cc}, !- Space Name
  Ground,                                 !- Outside Boundary Condition
  ,                                       !- Outside Boundary Condition Object
  NoSun,                                  !- Sun Exposure
  NoWind,                                 !- Wind Exposure
  ,                                       !- View Factor to Ground
  ,                                       !- Number of Vertices
  1.24344978758018e-14, -2.22044604925031e-15, 0, !- X,Y,Z Vertex 1 {m}
  1.24344978758018e-14, 6.67039166329202, 0, !- X,Y,Z Vertex 2 {m}
  4.572, 6.67039166329202, 0,             !- X,Y,Z Vertex 3 {m}
  4.572, -2.22044604925031e-15, 0;        !- X,Y,Z Vertex 4 {m}

OS:Surface,
  {3f1b69d5-7bbf-4a11-bf8d-8e49eb33b37f}, !- Handle
  Surface 8,                              !- Name
  Wall,                                   !- Surface Type
  ,                                       !- Construction Name
  {5ef8d9d3-8118-4b54-8063-13a3aed709cc}, !- Space Name
  Outdoors,                               !- Outside Boundary Condition
  ,                                       !- Outside Boundary Condition Object
  SunExposed,                             !- Sun Exposure
  WindExposed,                            !- Wind Exposure
  ,                                       !- View Factor to Ground
  ,                                       !- Number of Vertices
  1.24344978758018e-14, 6.67039166329202, 3.048, !- X,Y,Z Vertex 1 {m}
  1.24344978758018e-14, 6.67039166329202, 0, !- X,Y,Z Vertex 2 {m}
  1.24344978758018e-14, -2.22044604925031e-15, 0, !- X,Y,Z Vertex 3 {m}
  1.24344978758018e-14, -2.22044604925031e-15, 3.048; !- X,Y,Z Vertex 4 {m}

OS:Surface,
  {11e11e9d-8cb2-4db7-93ec-c58944384251}, !- Handle
  Surface 9,                              !- Name
  Wall,                                   !- Surface Type
  ,                                       !- Construction Name
  {5ef8d9d3-8118-4b54-8063-13a3aed709cc}, !- Space Name
  Surface,                                !- Outside Boundary Condition
  {974af2db-ebb3-43c9-bd93-94e94ff585d7}, !- Outside Boundary Condition Object
  NoSun,                                  !- Sun Exposure
  NoWind,                                 !- Wind Exposure
  ,                                       !- View Factor to Ground
  ,                                       !- Number of Vertices
  4.572, 6.67039166329202, 3.048,         !- X,Y,Z Vertex 1 {m}
  4.572, 6.67039166329202, 0,             !- X,Y,Z Vertex 2 {m}
  1.24344978758018e-14, 6.67039166329202, 0, !- X,Y,Z Vertex 3 {m}
  1.24344978758018e-14, 6.67039166329202, 3.048; !- X,Y,Z Vertex 4 {m}

OS:Surface,
  {6e301a4c-470e-47bb-949f-9a5a28fd9646}, !- Handle
  Surface 10,                             !- Name
  Wall,                                   !- Surface Type
  ,                                       !- Construction Name
  {5ef8d9d3-8118-4b54-8063-13a3aed709cc}, !- Space Name
  Surface,                                !- Outside Boundary Condition
  {8c56a108-a93a-4aed-941a-06b773c88bbc}, !- Outside Boundary Condition Object
  NoSun,                                  !- Sun Exposure
  NoWind,                                 !- Wind Exposure
  ,                                       !- View Factor to Ground
  ,                                       !- Number of Vertices
  4.572, -2.22044604925031e-15, 3.048,    !- X,Y,Z Vertex 1 {m}
  4.572, -2.22044604925031e-15, 0,        !- X,Y,Z Vertex 2 {m}
  4.572, 6.67039166329202, 0,             !- X,Y,Z Vertex 3 {m}
  4.572, 6.67039166329202, 3.048;         !- X,Y,Z Vertex 4 {m}

OS:Surface,
  {665367fe-505f-4a73-9712-11c4e1a6713c}, !- Handle
  Surface 11,                             !- Name
  Wall,                                   !- Surface Type
  ,                                       !- Construction Name
  {5ef8d9d3-8118-4b54-8063-13a3aed709cc}, !- Space Name
  Surface,                                !- Outside Boundary Condition
  {378c1de7-f8a6-48cb-9938-87664f7bb7f0}, !- Outside Boundary Condition Object
  NoSun,                                  !- Sun Exposure
  NoWind,                                 !- Wind Exposure
  ,                                       !- View Factor to Ground
  ,                                       !- Number of Vertices
  1.24344978758018e-14, -2.22044604925031e-15, 3.048, !- X,Y,Z Vertex 1 {m}
  1.24344978758018e-14, -2.22044604925031e-15, 0, !- X,Y,Z Vertex 2 {m}
  4.572, -2.22044604925031e-15, 0,        !- X,Y,Z Vertex 3 {m}
  4.572, -2.22044604925031e-15, 3.048;    !- X,Y,Z Vertex 4 {m}

OS:Surface,
  {1164e7e3-fd4f-45a7-85ac-9e511bce5570}, !- Handle
  Surface 12,                             !- Name
  RoofCeiling,                            !- Surface Type
  ,                                       !- Construction Name
  {5ef8d9d3-8118-4b54-8063-13a3aed709cc}, !- Space Name
  Outdoors,                               !- Outside Boundary Condition
  ,                                       !- Outside Boundary Condition Object
  SunExposed,                             !- Sun Exposure
  WindExposed,                            !- Wind Exposure
  ,                                       !- View Factor to Ground
  ,                                       !- Number of Vertices
  4.572, -2.22044604925031e-15, 3.048,    !- X,Y,Z Vertex 1 {m}
  4.572, 6.67039166329202, 3.048,         !- X,Y,Z Vertex 2 {m}
  1.24344978758018e-14, 6.67039166329202, 3.048, !- X,Y,Z Vertex 3 {m}
  1.24344978758018e-14, -2.22044604925031e-15, 3.048; !- X,Y,Z Vertex 4 {m}

OS:ThermalZone,
  {0d94d3ac-9616-47e2-b1c5-873c57a562e4}, !- Handle
  Zone SmallOffice WholeBuilding - Sm Office B end_a - Story Ground, !- Name
  1,                                      !- Multiplier
  ,                                       !- Ceiling Height {m}
  ,                                       !- Volume {m3}
  ,                                       !- Floor Area {m2}
  ,                                       !- Zone Inside Convection Algorithm
  ,                                       !- Zone Outside Convection Algorithm
  ,                                       !- Zone Conditioning Equipment List Name
  {93a0688e-daee-4eb5-b715-68a6845f545e}, !- Zone Air Inlet Port List
  {e29a2555-300d-4a30-8815-da9f4d0ef4b1}, !- Zone Air Exhaust Port List
  {b6116994-8370-4500-bdae-d09dc0613f73}, !- Zone Air Node Name
  {c2bae9d3-8a10-4744-a1c1-33d6b7ed26aa}, !- Zone Return Air Port List
  ,                                       !- Primary Daylighting Control Name
  ,                                       !- Fraction of Zone Controlled by Primary Daylighting Control
  ,                                       !- Secondary Daylighting Control Name
  ,                                       !- Fraction of Zone Controlled by Secondary Daylighting Control
  ,                                       !- Illuminance Map Name
  ,                                       !- Group Rendering Name
  {b0fb6ca7-8060-424e-bd5e-4ab4f75253f2}, !- Thermostat Name
  No;                                     !- Use Ideal Air Loads

OS:Node,
  {f941e59f-16c4-421e-a049-df123066f5a7}, !- Handle
  Zone SmallOffice WholeBuilding - Sm Office B end_a - Story Ground Zone Air Node, !- Name
  {b6116994-8370-4500-bdae-d09dc0613f73}, !- Inlet Port
  ;                                       !- Outlet Port

OS:Connection,
  {b6116994-8370-4500-bdae-d09dc0613f73}, !- Handle
  {ae1a50d9-efc1-4a2c-8e45-3f805c793799}, !- Name
  {0d94d3ac-9616-47e2-b1c5-873c57a562e4}, !- Source Object
  11,                                     !- Outlet Port
  {f941e59f-16c4-421e-a049-df123066f5a7}, !- Target Object